
  -ISIS-  -- StrEd -- 

 45 50  0  0  0  0  0  0  0  0999 V2000
    3.1906   -2.1314    0.0000 C   0  0  0  0  0  0  0  0  0  0  0  0
    3.6966   -2.9941    0.0000 F   0  0  0  0  0  0  0  0  0  0  0  0
    2.1907   -2.1374    0.0000 C   0  0  0  0  0  0  0  0  0  0  0  0
    1.6856   -1.2747    0.0000 C   0  0  0  0  0  0  0  0  0  0  0  0
    2.1795   -0.4051    0.0000 C   0  0  0  0  0  0  0  0  0  0  0  0
    1.6738    0.4573    0.0000 C   0  0  0  0  0  0  0  0  0  0  0  0
    0.6739    0.4510    0.0000 N   0  0  0  0  0  0  0  0  0  0  0  0
    0.1799   -0.4175    0.0000 C   0  0  0  0  0  0  0  0  0  0  0  0
   -0.8200   -0.4243    0.0000 C   0  0  0  0  0  0  0  0  0  0  0  0
   -1.3260    0.4384    0.0000 C   0  0  0  0  0  0  0  0  0  0  0  0
   -0.8312    1.3074    0.0000 C   0  0  0  0  0  0  0  0  0  0  0  0
    0.1688    1.3137    0.0000 C   0  0  0  0  0  0  0  0  0  0  0  0
   -1.8053   -0.4398    0.0000 N   0  0  0  0  0  0  0  0  0  0  0  0
   -2.7878   -0.2547    0.0000 C   0  0  0  0  0  0  0  0  0  0  0  0
   -3.5150   -0.9415    0.0000 O   0  0  0  0  0  0  0  0  0  0  0  0
   -2.9164    0.7369    0.0000 C   0  0  0  0  0  0  0  0  0  0  0  0
   -3.6026    1.4641    0.0000 C   0  0  0  0  0  0  0  0  0  0  0  0
   -4.5943    1.3360    0.0000 C   0  0  2  0  0  0  0  0  0  0  0  0
   -5.2008    2.1305    0.0000 N   0  0  0  0  0  0  0  0  0  0  0  0
   -6.1930    2.0027    0.0000 S   0  0  0  0  0  0  0  0  0  0  0  0
   -6.0644    1.0111    0.0000 O   0  0  0  0  0  0  0  0  0  0  0  0
   -6.3211    2.9941    0.0000 O   0  0  0  0  0  0  0  0  0  0  0  0
   -7.1847    1.8738    0.0000 C   0  0  0  0  0  0  0  0  0  0  0  0
   -7.7915    2.6692    0.0000 C   0  0  0  0  0  0  0  0  0  0  0  0
   -8.7837    2.5411    0.0000 C   0  0  0  0  0  0  0  0  0  0  0  0
   -9.1685    1.6180    0.0000 C   0  0  0  0  0  0  0  0  0  0  0  0
   -8.5611    0.8232    0.0000 C   0  0  0  0  0  0  0  0  0  0  0  0
   -7.5694    0.9512    0.0000 C   0  0  0  0  0  0  0  0  0  0  0  0
   -4.9796    0.4134    0.0000 C   0  0  0  0  0  0  0  0  0  0  0  0
   -3.1233    2.3423    0.0000 C   0  0  0  0  0  0  0  0  0  0  0  0
   -2.1408    2.1569    0.0000 C   0  0  0  0  0  0  0  0  0  0  0  0
   -2.0125    1.1655    0.0000 N   0  0  0  0  0  0  0  0  0  0  0  0
    3.1795   -0.3994    0.0000 C   0  0  0  0  0  0  0  0  0  0  0  0
    3.6743    0.4705    0.0000 C   0  0  0  0  0  0  0  0  0  0  0  0
    4.6742    0.4765    0.0000 N   0  0  0  0  0  0  0  0  0  0  0  0
    5.1799   -0.3862    0.0000 C   0  0  0  0  0  0  0  0  0  0  0  0
    6.1798   -0.3805    0.0000 C   0  0  0  0  0  0  0  0  0  0  0  0
    6.6741    0.4891    0.0000 N   0  0  0  0  0  0  0  0  0  0  0  0
    7.6737    0.4954    0.0000 C   0  0  0  0  0  0  0  0  0  0  0  0
    8.1797   -0.3673    0.0000 O   0  0  0  0  0  0  0  0  0  0  0  0
    8.1685    1.3644    0.0000 C   0  0  0  0  0  0  0  0  0  0  0  0
    9.1685    1.3715    0.0000 C   0  0  0  0  0  0  0  0  0  0  0  0
    6.1690    1.3521    0.0000 C   0  0  0  0  0  0  0  0  0  0  0  0
    5.1690    1.3458    0.0000 C   0  0  0  0  0  0  0  0  0  0  0  0
    3.6854   -1.2615    0.0000 C   0  0  0  0  0  0  0  0  0  0  0  0
  1  2  1  0  0  0  0
  1  3  1  0  0  0  0
  1 45  2  0  0  0  0
  3  4  2  0  0  0  0
  4  5  1  0  0  0  0
  5  6  1  0  0  0  0
  5 33  2  0  0  0  0
  6  7  1  0  0  0  0
  7  8  1  0  0  0  0
  7 12  1  0  0  0  0
  8  9  1  0  0  0  0
  9 10  1  0  0  0  0
 10 11  1  0  0  0  0
 10 13  1  0  0  0  0
 10 32  1  0  0  0  0
 11 12  1  0  0  0  0
 13 14  1  0  0  0  0
 14 15  2  0  0  0  0
 14 16  1  0  0  0  0
 16 17  2  0  0  0  0
 16 32  1  0  0  0  0
 18 17  1  1  0  0  0
 17 30  1  0  0  0  0
 18 19  1  0  0  0  0
 18 29  1  0  0  0  0
 19 20  1  0  0  0  0
 20 21  2  0  0  0  0
 20 22  2  0  0  0  0
 20 23  1  0  0  0  0
 23 24  1  0  0  0  0
 23 28  2  0  0  0  0
 24 25  2  0  0  0  0
 25 26  1  0  0  0  0
 26 27  2  0  0  0  0
 27 28  1  0  0  0  0
 30 31  2  0  0  0  0
 31 32  1  0  0  0  0
 33 34  1  0  0  0  0
 33 45  1  0  0  0  0
 34 35  1  0  0  0  0
 35 36  1  0  0  0  0
 35 44  1  0  0  0  0
 36 37  1  0  0  0  0
 37 38  1  0  0  0  0
 38 39  1  0  0  0  0
 38 43  1  0  0  0  0
 39 40  2  0  0  0  0
 39 41  1  0  0  0  0
 41 42  1  0  0  0  0
 43 44  1  0  0  0  0
M  END
>  <ID> (INSCoV-001)
INSCoV-001

>  <HBA> (INSCoV-001)
4

>  <HBD> (INSCoV-001)
4

>  <MCE-18> (INSCoV-001)
161.88

>  <nRot> (INSCoV-001)
9

>  <TopoPSA> (INSCoV-001)
115.37

>  <chembl_closest> (INSCoV-001)
CHEMBL2337302

>  <chembl_max_sim> (INSCoV-001)
0.77

>  <nSC> (INSCoV-001)
1

>  <nAR> (INSCoV-001)
3

>  <MW> (INSCoV-001)
636.29

$$$$

  -ISIS-  -- StrEd -- 

 41 45  0  0  0  0  0  0  0  0999 V2000
   -3.6968   -2.4010    0.0000 C   0  0  0  0  0  0  0  0  0  0  0  0
   -2.6968   -2.3948    0.0000 C   0  0  0  0  0  0  0  0  0  0  0  0
   -2.1913   -3.2571    0.0000 C   0  0  0  0  0  0  0  0  0  0  0  0
   -2.2030   -1.5249    0.0000 C   0  0  1  0  0  0  0  0  0  0  0  0
   -2.7081   -0.6626    0.0000 N   0  0  0  0  0  0  0  0  0  0  0  0
   -3.7087   -0.6692    0.0000 C   0  0  0  0  0  0  0  0  0  0  0  0
   -4.2030   -1.5387    0.0000 O   0  0  0  0  0  0  0  0  0  0  0  0
   -4.2145    0.1935    0.0000 C   0  0  0  0  0  0  0  0  0  0  0  0
   -3.8132    1.1097    0.0000 N   0  0  0  0  0  0  0  0  0  0  0  0
   -4.5612    1.7738    0.0000 N   0  0  0  0  0  0  0  0  0  0  0  0
   -4.4638    2.7691    0.0000 C   0  0  0  0  0  0  0  0  0  0  0  0
   -3.5529    3.1821    0.0000 C   0  0  0  0  0  0  0  0  0  0  0  0
   -3.4551    4.1767    0.0000 C   0  0  0  0  0  0  0  0  0  0  0  0
   -4.2677    4.7586    0.0000 C   0  0  0  0  0  0  0  0  0  0  0  0
   -5.1786    4.3457    0.0000 C   0  0  0  0  0  0  0  0  0  0  0  0
   -5.9917    4.9284    0.0000 F   0  0  0  0  0  0  0  0  0  0  0  0
   -5.2764    3.3513    0.0000 C   0  0  0  0  0  0  0  0  0  0  0  0
   -5.4239    1.2681    0.0000 C   0  0  0  0  0  0  0  0  0  0  0  0
   -5.2097    0.2909    0.0000 C   0  0  0  0  0  0  0  0  0  0  0  0
   -6.0720   -0.2148    0.0000 C   0  0  0  0  0  0  0  0  0  0  0  0
   -6.8199    0.4493    0.0000 C   0  0  0  0  0  0  0  0  0  0  0  0
   -6.4192    1.3659    0.0000 C   0  0  0  0  0  0  0  0  0  0  0  0
   -1.2026   -1.5187    0.0000 C   0  0  0  0  0  0  0  0  0  0  0  0
   -0.7088   -0.6490    0.0000 O   0  0  0  0  0  0  0  0  0  0  0  0
   -0.6969   -2.3818    0.0000 N   0  0  0  0  0  0  0  0  0  0  0  0
    0.3031   -2.3742    0.0000 C   0  0  0  0  0  0  0  0  0  0  0  0
    0.8088   -3.2375    0.0000 C   0  0  0  0  0  0  0  0  0  0  0  0
    1.8088   -3.2303    0.0000 C   0  0  0  0  0  0  0  0  0  0  0  0
    2.3023   -2.3607    0.0000 N   0  0  0  0  0  0  0  0  0  0  0  0
    3.3029   -2.3550    0.0000 C   0  0  0  0  0  0  0  0  0  0  0  0
    3.8087   -3.2166    0.0000 C   0  0  1  0  0  0  0  0  0  0  0  0
    3.3142   -4.0868    0.0000 C   0  0  0  0  0  0  0  0  0  0  0  0
    4.8086   -3.2104    0.0000 C   0  0  0  0  0  0  0  0  0  0  0  0
    5.3029   -2.3405    0.0000 C   0  0  0  0  0  0  0  0  0  0  0  0
    6.3033   -2.3343    0.0000 C   0  0  0  0  0  0  0  0  0  0  0  0
    6.8086   -3.1970    0.0000 C   0  0  0  0  0  0  0  0  0  0  0  0
    6.3143   -4.0661    0.0000 C   0  0  0  0  0  0  0  0  0  0  0  0
    6.8199   -4.9284    0.0000 F   0  0  0  0  0  0  0  0  0  0  0  0
    5.3148   -4.0727    0.0000 C   0  0  0  0  0  0  0  0  0  0  0  0
    1.7972   -1.4978    0.0000 C   0  0  0  0  0  0  0  0  0  0  0  0
    0.7973   -1.5057    0.0000 C   0  0  0  0  0  0  0  0  0  0  0  0
  1  2  1  0  0  0  0
  2  3  1  0  0  0  0
  2  4  1  0  0  0  0
  4  5  1  0  0  0  0
  4 23  1  1  0  0  0
  5  6  1  0  0  0  0
  6  7  2  0  0  0  0
  6  8  1  0  0  0  0
  8  9  2  0  0  0  0
  8 19  1  0  0  0  0
  9 10  1  0  0  0  0
 10 11  1  0  0  0  0
 10 18  1  0  0  0  0
 11 12  1  0  0  0  0
 11 17  2  0  0  0  0
 12 13  2  0  0  0  0
 13 14  1  0  0  0  0
 14 15  2  0  0  0  0
 15 16  1  0  0  0  0
 15 17  1  0  0  0  0
 18 19  2  0  0  0  0
 18 22  1  0  0  0  0
 19 20  1  0  0  0  0
 20 21  1  0  0  0  0
 21 22  1  0  0  0  0
 23 24  2  0  0  0  0
 23 25  1  0  0  0  0
 25 26  1  0  0  0  0
 26 27  1  0  0  0  0
 26 41  1  0  0  0  0
 27 28  1  0  0  0  0
 28 29  1  0  0  0  0
 29 30  1  0  0  0  0
 29 40  1  0  0  0  0
 30 31  1  0  0  0  0
 31 32  1  6  0  0  0
 31 33  1  0  0  0  0
 33 34  1  0  0  0  0
 33 39  2  0  0  0  0
 34 35  2  0  0  0  0
 35 36  1  0  0  0  0
 36 37  2  0  0  0  0
 37 38  1  0  0  0  0
 37 39  1  0  0  0  0
 40 41  1  0  0  0  0
M  END
>  <ID> (INSCoV-002)
INSCoV-002

>  <HBA> (INSCoV-002)
3

>  <HBD> (INSCoV-002)
3

>  <MCE-18> (INSCoV-002)
100.21

>  <nRot> (INSCoV-002)
9

>  <TopoPSA> (INSCoV-002)
79.26

>  <chembl_closest> (INSCoV-002)
CHEMBL3325649

>  <chembl_max_sim> (INSCoV-002)
0.8

>  <nSC> (INSCoV-002)
2

>  <nAR> (INSCoV-002)
3

>  <MW> (INSCoV-002)
563.31

$$$$

  -ISIS-  -- StrEd -- 

 44 48  0  0  0  0  0  0  0  0999 V2000
    4.2064    0.2999    0.0000 C   0  0  0  0  0  0  0  0  0  0  0  0
    3.2092    0.2999    0.0000 C   0  0  0  0  0  0  0  0  0  0  0  0
    2.7099   -0.5972    0.0000 C   0  0  0  0  0  0  0  0  0  0  0  0
    2.7099    1.0979    0.0000 C   0  0  1  0  0  0  0  0  0  0  0  0
    1.7117    1.0979    0.0000 C   0  0  0  0  0  0  0  0  0  0  0  0
    1.2127    0.2999    0.0000 N   0  0  0  0  0  0  0  0  0  0  0  0
    0.2151    0.2999    0.0000 C   0  0  0  0  0  0  0  0  0  0  0  0
   -0.2848    1.0979    0.0000 O   0  0  0  0  0  0  0  0  0  0  0  0
   -0.2848   -0.5972    0.0000 C   0  0  0  0  0  0  0  0  0  0  0  0
    0.2151   -1.4962    0.0000 C   0  0  2  0  0  0  0  0  0  0  0  0
   -0.7849   -1.4962    0.0000 N   0  0  0  0  0  0  0  0  0  0  0  0
   -1.2824   -0.5972    0.0000 C   0  0  0  0  0  0  0  0  0  0  0  0
   -0.7849    0.2999    0.0000 O   0  0  0  0  0  0  0  0  0  0  0  0
   -2.2800   -0.5972    0.0000 N   0  0  0  0  0  0  0  0  0  0  0  0
   -2.7786    0.2002    0.0000 C   0  0  0  0  0  0  0  0  0  0  0  0
   -2.2800    1.0979    0.0000 C   0  0  0  0  0  0  0  0  0  0  0  0
   -2.7786    1.9965    0.0000 C   0  0  0  0  0  0  0  0  0  0  0  0
   -3.7775    1.9965    0.0000 C   0  0  0  0  0  0  0  0  0  0  0  0
   -4.2765    1.0979    0.0000 C   0  0  0  0  0  0  0  0  0  0  0  0
   -5.7733    1.9965    0.0000 N   0  0  0  0  0  0  0  0  0  0  0  0
   -3.7775    0.2002    0.0000 C   0  0  0  0  0  0  0  0  0  0  0  0
    1.1126   -0.9976    0.0000 C   0  0  0  0  0  0  0  0  0  0  0  0
    1.9111   -1.4962    0.0000 C   0  0  0  0  0  0  0  0  0  0  0  0
    2.0112   -2.4940    0.0000 O   0  0  0  0  0  0  0  0  0  0  0  0
    1.1126   -2.9937    0.0000 C   0  0  0  0  0  0  0  0  0  0  0  0
    1.1126   -3.9908    0.0000 C   0  0  0  0  0  0  0  0  0  0  0  0
    0.2151   -4.4909    0.0000 C   0  0  0  0  0  0  0  0  0  0  0  0
   -0.5840   -3.9908    0.0000 C   0  0  0  0  0  0  0  0  0  0  0  0
   -0.5840   -2.9937    0.0000 C   0  0  0  0  0  0  0  0  0  0  0  0
    0.2151   -2.4940    0.0000 C   0  0  0  0  0  0  0  0  0  0  0  0
    3.2092    1.9965    0.0000 N   0  0  0  0  0  0  0  0  0  0  0  0
    4.2064    1.9965    0.0000 C   0  0  0  0  0  0  0  0  0  0  0  0
    4.7054    1.1989    0.0000 O   0  0  0  0  0  0  0  0  0  0  0  0
    4.7054    2.8955    0.0000 C   0  0  0  0  0  0  0  0  0  0  0  0
    5.7030    2.9941    0.0000 C   0  0  0  0  0  0  0  0  0  0  0  0
    5.9034    3.9934    0.0000 C   0  0  0  0  0  0  0  0  0  0  0  0
    5.0048    4.4909    0.0000 S   0  0  0  0  0  0  0  0  0  0  0  0
    4.3058    3.7926    0.0000 C   0  0  0  0  0  0  0  0  0  0  0  0
    6.8009    4.3917    0.0000 C   0  0  0  0  0  0  0  0  0  0  0  0
   -5.2747    1.0979    0.0000 C   0  0  0  0  0  0  0  0  0  0  0  0
   -6.1393    0.5987    0.0000 C   0  0  0  0  0  0  0  0  0  0  0  0
   -5.2747    0.0997    0.0000 C   0  0  0  0  0  0  0  0  0  0  0  0
   -6.8009    1.9969    0.0000 H   0  0  0  0  0  0  0  0  0  0  0  0
   -5.2596    2.8868    0.0000 H   0  0  0  0  0  0  0  0  0  0  0  0
  1  2  1  0  0  0  0
  2  3  1  0  0  0  0
  2  4  1  0  0  0  0
  4  5  1  0  0  0  0
  4 31  1  1  0  0  0
  5  6  1  0  0  0  0
  6  7  1  0  0  0  0
  7  8  2  0  0  0  0
  7  9  1  0  0  0  0
 10  9  1  6  0  0  0
 10 11  1  1  0  0  0
 10 22  1  0  0  0  0
 10 30  1  0  0  0  0
 11 12  1  0  0  0  0
 12 13  2  0  0  0  0
 12 14  1  0  0  0  0
 14 15  1  0  0  0  0
 15 16  1  0  0  0  0
 15 21  2  0  0  0  0
 16 17  2  0  0  0  0
 17 18  1  0  0  0  0
 18 19  2  0  0  0  0
 19 40  1  0  0  0  0
 19 21  1  0  0  0  0
 40 20  1  0  0  0  0
 22 23  1  0  0  0  0
 23 24  1  0  0  0  0
 24 25  1  0  0  0  0
 25 26  1  0  0  0  0
 25 30  2  0  0  0  0
 26 27  2  0  0  0  0
 27 28  1  0  0  0  0
 28 29  2  0  0  0  0
 29 30  1  0  0  0  0
 31 32  1  0  0  0  0
 32 33  2  0  0  0  0
 32 34  1  0  0  0  0
 34 35  1  0  0  0  0
 34 38  2  0  0  0  0
 35 36  2  0  0  0  0
 36 37  1  0  0  0  0
 36 39  1  0  0  0  0
 37 38  1  0  0  0  0
 40 41  1  0  0  0  0
 42 41  1  0  0  0  0
 42 40  1  0  0  0  0
 20 43  1  0  0  0  0
 20 44  1  0  0  0  0
M  END
>  <ID> (INSCoV-003)
INSCoV-003

>  <HBA> (INSCoV-003)
4

>  <HBD> (INSCoV-003)
7

>  <MCE-18> (INSCoV-003)
104.53

>  <nRot> (INSCoV-003)
10

>  <TopoPSA> (INSCoV-003)
162.82

>  <chembl_closest> (INSCoV-003)
no

>  <chembl_max_sim> (INSCoV-003)
0.7

>  <nSC> (INSCoV-003)
2

>  <nAR> (INSCoV-003)
3

>  <MW> (INSCoV-003)
589.27

$$$$

  -ISIS-  -- StrEd -- 

 33 36  0  0  0  0  0  0  0  0999 V2000
    4.3305    1.4995    0.0000 C   0  0  0  0  0  0  0  0  0  0  0  0
    5.1970    1.9986    0.0000 N   0  0  0  0  0  0  0  0  0  0  0  0
    4.3297    0.4997    0.0000 C   0  0  0  0  0  0  0  0  0  0  0  0
    5.1953   -0.0011    0.0000 O   0  0  0  0  0  0  0  0  0  0  0  0
    3.4636    0.0003    0.0000 N   0  0  0  0  0  0  0  0  0  0  0  0
    2.5978    0.5005    0.0000 C   0  0  0  0  0  0  0  0  0  0  0  0
    2.5978    1.5003    0.0000 C   0  0  0  0  0  0  0  0  0  0  0  0
    1.7316    2.0003    0.0000 C   0  0  0  0  0  0  0  0  0  0  0  0
    0.8655    1.5003    0.0000 C   0  0  0  0  0  0  0  0  0  0  0  0
    0.8655    0.5005    0.0000 C   0  0  0  0  0  0  0  0  0  0  0  0
    1.7316    0.0003    0.0000 C   0  0  0  0  0  0  0  0  0  0  0  0
    1.7316   -0.9998    0.0000 N   0  0  0  0  0  0  0  0  0  0  0  0
    0.8655   -1.4995    0.0000 C   0  0  0  0  0  0  0  0  0  0  0  0
    0.8655   -2.4994    0.0000 O   0  0  0  0  0  0  0  0  0  0  0  0
   -0.0006   -0.9998    0.0000 N   0  0  0  0  0  0  0  0  0  0  0  0
   -0.8663   -1.4995    0.0000 C   0  0  0  0  0  0  0  0  0  0  0  0
   -1.7329   -0.9998    0.0000 C   0  0  0  0  0  0  0  0  0  0  0  0
   -1.7329    0.0003    0.0000 N   0  0  0  0  0  0  0  0  0  0  0  0
   -2.5986    0.5005    0.0000 C   0  0  0  0  0  0  0  0  0  0  0  0
   -2.5986    1.5003    0.0000 O   0  0  0  0  0  0  0  0  0  0  0  0
   -0.8663    0.5005    0.0000 C   0  0  0  0  0  0  0  0  0  0  0  0
   -0.0006    0.0003    0.0000 C   0  0  2  0  0  0  0  0  0  0  0  0
   -5.1970   -0.9998    0.0000 C   0  0  0  0  0  0  0  0  0  0  0  0
   -4.3309   -1.4995    0.0000 C   0  0  0  0  0  0  0  0  0  0  0  0
   -3.4643   -0.9998    0.0000 C   0  0  0  0  0  0  0  0  0  0  0  0
   -2.5986   -1.4995    0.0000 F   0  0  0  0  0  0  0  0  0  0  0  0
   -3.4643    0.0003    0.0000 C   0  0  0  0  0  0  0  0  0  0  0  0
   -4.3309    0.5005    0.0000 C   0  0  0  0  0  0  0  0  0  0  0  0
   -4.3309    1.5003    0.0000 C   0  0  0  0  0  0  0  0  0  0  0  0
   -5.1970    0.0003    0.0000 C   0  0  0  0  0  0  0  0  0  0  0  0
    3.4651    2.0000    0.0000 C   0  0  0  0  0  0  0  0  0  0  0  0
    4.3312    2.4994    0.0000 C   0  0  0  0  0  0  0  0  0  0  0  0
   -0.0006    1.0006    0.0000 H   0  0  0  0  0  0  0  0  0  0  0  0
  1  2  1  0  0  0  0
  1  3  1  0  0  0  0
  3  4  2  0  0  0  0
  3  5  1  0  0  0  0
  5  6  1  0  0  0  0
  6  7  1  0  0  0  0
  6 11  2  0  0  0  0
  7  8  2  0  0  0  0
  8  9  1  0  0  0  0
  9 10  2  0  0  0  0
 10 11  1  0  0  0  0
 10 22  1  0  0  0  0
 11 12  1  0  0  0  0
 12 13  1  0  0  0  0
 13 14  2  0  0  0  0
 13 15  1  0  0  0  0
 15 16  1  0  0  0  0
 15 22  1  0  0  0  0
 16 17  1  0  0  0  0
 17 18  1  0  0  0  0
 18 19  1  0  0  0  0
 18 21  1  0  0  0  0
 19 20  2  0  0  0  0
 19 27  1  0  0  0  0
 21 22  1  0  0  0  0
 23 24  1  0  0  0  0
 23 30  2  0  0  0  0
 24 25  2  0  0  0  0
 25 26  1  0  0  0  0
 25 27  1  0  0  0  0
 27 28  2  0  0  0  0
 28 29  1  0  0  0  0
 28 30  1  0  0  0  0
  1 31  1  0  0  0  0
  1 32  1  0  0  0  0
 22 33  1  1  0  0  0
M  END
>  <ID> (INSCoV-004)
INSCoV-004

>  <HBA> (INSCoV-004)
3

>  <HBD> (INSCoV-004)
5

>  <MCE-18> (INSCoV-004)
87.97

>  <nRot> (INSCoV-004)
3

>  <TopoPSA> (INSCoV-004)
107.77

>  <chembl_closest> (INSCoV-004)
CHEMBL2115131

>  <chembl_max_sim> (INSCoV-004)
0.76

>  <nSC> (INSCoV-004)
1

>  <nAR> (INSCoV-004)
2

>  <MW> (INSCoV-004)
439.2

$$$$

  -ISIS-  -- StrEd -- 

 41 46  0  0  0  0  0  0  0  0999 V2000
   -8.0127   -1.2788    0.0000 C   0  0  0  0  0  0  0  0  0  0  0  0
   -7.0226   -1.1383    0.0000 O   0  0  0  0  0  0  0  0  0  0  0  0
   -6.6493   -0.2111    0.0000 C   0  0  0  0  0  0  0  0  0  0  0  0
   -7.2660    0.5764    0.0000 C   0  0  0  0  0  0  0  0  0  0  0  0
   -6.8932    1.5039    0.0000 C   0  0  0  0  0  0  0  0  0  0  0  0
   -5.9026    1.6449    0.0000 C   0  0  0  0  0  0  0  0  0  0  0  0
   -5.2859    0.8574    0.0000 C   0  0  0  0  0  0  0  0  0  0  0  0
   -4.2960    0.9978    0.0000 C   0  0  2  0  0  0  0  0  0  0  0  0
   -3.6002    0.2802    0.0000 C   0  0  0  0  0  0  0  0  0  0  0  0
   -2.7020    0.7199    0.0000 C   0  0  0  0  0  0  0  0  0  0  0  0
   -2.4083   -0.2366    0.0000 C   0  0  0  0  0  0  0  0  0  0  0  0
   -1.4530    0.0578    0.0000 N   0  0  0  0  0  0  0  0  0  0  0  0
   -0.5689   -0.4104    0.0000 C   0  0  0  0  0  0  0  0  0  0  0  0
    0.2782    0.1209    0.0000 C   0  0  0  0  0  0  0  0  0  0  0  0
    1.1618   -0.3473    0.0000 C   0  0  0  0  0  0  0  0  0  0  0  0
    1.1984   -1.3469    0.0000 C   0  0  0  0  0  0  0  0  0  0  0  0
    2.0818   -1.8151    0.0000 C   0  0  0  0  0  0  0  0  0  0  0  0
    2.1184   -2.8142    0.0000 O   0  0  0  0  0  0  0  0  0  0  0  0
    2.9289   -1.2838    0.0000 N   0  0  0  0  0  0  0  0  0  0  0  0
    2.8926   -0.2847    0.0000 C   0  0  0  0  0  0  0  0  0  0  0  0
    3.7402    0.2464    0.0000 C   0  0  0  0  0  0  0  0  0  0  0  0
    4.6236   -0.2221    0.0000 N   0  0  0  0  0  0  0  0  0  0  0  0
    5.4709    0.3095    0.0000 C   0  0  0  0  0  0  0  0  0  0  0  0
    5.4343    1.3086    0.0000 C   0  0  0  0  0  0  0  0  0  0  0  0
    6.2819    1.8402    0.0000 C   0  0  0  0  0  0  0  0  0  0  0  0
    7.1656    1.3719    0.0000 C   0  0  0  0  0  0  0  0  0  0  0  0
    7.2021    0.3728    0.0000 C   0  0  0  0  0  0  0  0  0  0  0  0
    6.3543   -0.1588    0.0000 C   0  0  0  0  0  0  0  0  0  0  0  0
    4.6596   -1.2212    0.0000 C   0  0  0  0  0  0  0  0  0  0  0  0
    5.5438   -1.6892    0.0000 O   0  0  0  0  0  0  0  0  0  0  0  0
    3.8125   -1.7520    0.0000 C   0  0  0  0  0  0  0  0  0  0  0  0
    0.3513   -1.8777    0.0000 C   0  0  0  0  0  0  0  0  0  0  0  0
    0.3871   -2.8776    0.0000 C   0  0  0  0  0  0  0  0  0  0  0  0
   -0.5331   -1.4102    0.0000 C   0  0  0  0  0  0  0  0  0  0  0  0
   -1.7463    1.0131    0.0000 C   0  0  0  0  0  0  0  0  0  0  0  0
   -2.8432    1.7100    0.0000 N   0  0  0  0  0  0  0  0  0  0  0  0
   -3.8283    1.8820    0.0000 S   0  0  0  0  0  0  0  0  0  0  0  0
   -3.7334    2.8776    0.0000 O   0  0  0  0  0  0  0  0  0  0  0  0
   -4.6719    2.4178    0.0000 O   0  0  0  0  0  0  0  0  0  0  0  0
   -5.6592   -0.0699    0.0000 C   0  0  0  0  0  0  0  0  0  0  0  0
    8.0127    1.9035    0.0000 F   0  0  0  0  0  0  0  0  0  0  0  0
  1  2  1  0  0  0  0
  2  3  1  0  0  0  0
  3  4  1  0  0  0  0
  3 40  2  0  0  0  0
  4  5  2  0  0  0  0
  5  6  1  0  0  0  0
  6  7  2  0  0  0  0
  8  7  1  1  0  0  0
  7 40  1  0  0  0  0
  8  9  1  0  0  0  0
  8 37  1  0  0  0  0
  9 10  1  0  0  0  0
 10 11  1  0  0  0  0
 10 35  1  0  0  0  0
 10 36  1  0  0  0  0
 11 12  1  0  0  0  0
 12 13  1  0  0  0  0
 12 35  1  0  0  0  0
 13 14  1  0  0  0  0
 13 34  2  0  0  0  0
 14 15  2  0  0  0  0
 15 16  1  0  0  0  0
 16 17  1  0  0  0  0
 16 32  2  0  0  0  0
 17 18  2  0  0  0  0
 17 19  1  0  0  0  0
 19 20  1  0  0  0  0
 19 31  1  0  0  0  0
 20 21  1  0  0  0  0
 21 22  1  0  0  0  0
 22 23  1  0  0  0  0
 22 29  1  0  0  0  0
 23 24  1  0  0  0  0
 23 28  2  0  0  0  0
 24 25  2  0  0  0  0
 25 26  1  0  0  0  0
 26 27  2  0  0  0  0
 26 41  1  0  0  0  0
 27 28  1  0  0  0  0
 29 30  2  0  0  0  0
 29 31  1  0  0  0  0
 32 33  1  0  0  0  0
 32 34  1  0  0  0  0
 36 37  1  0  0  0  0
 37 38  2  0  0  0  0
 37 39  2  0  0  0  0
M  END
>  <ID> (INSCoV-005)
INSCoV-005

>  <HBA> (INSCoV-005)
5

>  <HBD> (INSCoV-005)
1

>  <MCE-18> (INSCoV-005)
162.8

>  <nRot> (INSCoV-005)
5

>  <TopoPSA> (INSCoV-005)
107.64

>  <chembl_closest> (INSCoV-005)
CHEMBL3798987

>  <chembl_max_sim> (INSCoV-005)
0.77

>  <nSC> (INSCoV-005)
1

>  <nAR> (INSCoV-005)
3

>  <MW> (INSCoV-005)
578.2

$$$$

  -ISIS-  -- StrEd -- 

 43 47  0  0  0  0  0  0  0  0999 V2000
    0.3166   -3.0311    0.0000 O   0  0  0  0  0  0  0  0  0  0  0  0
   -0.1827   -2.1654    0.0000 C   0  0  0  0  0  0  0  0  0  0  0  0
    0.3172   -1.2991    0.0000 N   0  0  0  0  0  0  0  0  0  0  0  0
    1.3170   -1.2991    0.0000 C   0  0  0  0  0  0  0  0  0  0  0  0
    1.8172   -0.4332    0.0000 C   0  0  0  0  0  0  0  0  0  0  0  0
    2.8174   -0.4332    0.0000 C   0  0  0  0  0  0  0  0  0  0  0  0
    3.3170   -1.2991    0.0000 C   0  0  0  0  0  0  0  0  0  0  0  0
    4.3172   -1.2991    0.0000 C   0  0  0  0  0  0  0  0  0  0  0  0
    4.8172   -0.4332    0.0000 C   0  0  0  0  0  0  0  0  0  0  0  0
    4.3172    0.4332    0.0000 C   0  0  0  0  0  0  0  0  0  0  0  0
    4.8172    1.2991    0.0000 N   0  0  0  0  0  0  0  0  0  0  0  0
    5.8173    1.2991    0.0000 C   0  0  0  0  0  0  0  0  0  0  0  0
    6.3171    2.1654    0.0000 C   0  0  0  0  0  0  0  0  0  0  0  0
    5.8173    3.0311    0.0000 C   0  0  0  0  0  0  0  0  0  0  0  0
    4.8172    3.0311    0.0000 C   0  0  0  0  0  0  0  0  0  0  0  0
    4.3172    2.1654    0.0000 C   0  0  0  0  0  0  0  0  0  0  0  0
    5.8173   -0.4332    0.0000 C   0  0  0  0  0  0  0  0  0  0  0  0
    6.3171   -1.2991    0.0000 C   0  0  0  0  0  0  0  0  0  0  0  0
    5.8169   -2.1654    0.0000 N   0  0  0  0  0  0  0  0  0  0  0  0
    4.8172   -2.1654    0.0000 C   0  0  0  0  0  0  0  0  0  0  0  0
    4.3172   -3.0311    0.0000 O   0  0  0  0  0  0  0  0  0  0  0  0
    2.8174   -2.1654    0.0000 C   0  0  0  0  0  0  0  0  0  0  0  0
    1.8172   -2.1654    0.0000 C   0  0  0  0  0  0  0  0  0  0  0  0
   -1.1831   -2.1654    0.0000 C   0  0  2  0  0  0  0  0  0  0  0  0
   -1.6831   -3.0311    0.0000 N   0  0  0  0  0  0  0  0  0  0  0  0
   -2.6829   -3.0311    0.0000 S   0  0  0  0  0  0  0  0  0  0  0  0
   -2.6829   -2.0315    0.0000 O   0  0  0  0  0  0  0  0  0  0  0  0
   -2.6829   -4.0312    0.0000 O   0  0  0  0  0  0  0  0  0  0  0  0
   -3.6831   -3.0311    0.0000 C   0  0  0  0  0  0  0  0  0  0  0  0
   -4.1833   -3.8974    0.0000 C   0  0  0  0  0  0  0  0  0  0  0  0
   -5.1829   -3.8974    0.0000 C   0  0  0  0  0  0  0  0  0  0  0  0
   -5.6830   -3.0311    0.0000 C   0  0  0  0  0  0  0  0  0  0  0  0
   -5.1829   -2.1654    0.0000 C   0  0  0  0  0  0  0  0  0  0  0  0
   -4.1833   -2.1654    0.0000 C   0  0  0  0  0  0  0  0  0  0  0  0
   -1.6831   -1.2991    0.0000 C   0  0  0  0  0  0  0  0  0  0  0  0
   -2.6829   -1.2991    0.0000 C   0  0  0  0  0  0  0  0  0  0  0  0
   -3.1831   -0.4332    0.0000 C   0  0  0  0  0  0  0  0  0  0  0  0
   -2.6829    0.4332    0.0000 C   0  0  0  0  0  0  0  0  0  0  0  0
   -1.6831    0.4332    0.0000 C   0  0  0  0  0  0  0  0  0  0  0  0
   -1.1831   -0.4332    0.0000 C   0  0  0  0  0  0  0  0  0  0  0  0
   -6.6832   -3.0311    0.0000 F   0  0  0  0  0  0  0  0  0  0  0  0
    6.6832    3.5313    0.0000 F   0  0  0  0  0  0  0  0  0  0  0  0
    5.8173    4.0312    0.0000 F   0  0  0  0  0  0  0  0  0  0  0  0
  1  2  2  0  0  0  0
  2  3  1  0  0  0  0
  2 24  1  0  0  0  0
  3  4  1  0  0  0  0
  4  5  1  0  0  0  0
  4 23  2  0  0  0  0
  5  6  2  0  0  0  0
  6  7  1  0  0  0  0
  7  8  1  0  0  0  0
  7 22  2  0  0  0  0
  8  9  2  0  0  0  0
  8 20  1  0  0  0  0
  9 10  1  0  0  0  0
  9 17  1  0  0  0  0
 10 11  1  0  0  0  0
 11 12  1  0  0  0  0
 11 16  1  0  0  0  0
 12 13  1  0  0  0  0
 13 14  1  0  0  0  0
 14 15  1  0  0  0  0
 15 16  1  0  0  0  0
 17 18  2  0  0  0  0
 18 19  1  0  0  0  0
 19 20  1  0  0  0  0
 20 21  2  0  0  0  0
 22 23  1  0  0  0  0
 24 25  1  6  0  0  0
 24 35  1  0  0  0  0
 25 26  1  0  0  0  0
 26 27  2  0  0  0  0
 26 28  2  0  0  0  0
 26 29  1  0  0  0  0
 29 30  1  0  0  0  0
 29 34  2  0  0  0  0
 30 31  2  0  0  0  0
 31 32  1  0  0  0  0
 32 33  2  0  0  0  0
 32 41  1  0  0  0  0
 33 34  1  0  0  0  0
 35 36  1  0  0  0  0
 35 40  2  0  0  0  0
 36 37  2  0  0  0  0
 37 38  1  0  0  0  0
 38 39  2  0  0  0  0
 39 40  1  0  0  0  0
 14 42  1  0  0  0  0
 14 43  1  0  0  0  0
M  END
>  <ID> (INSCoV-006)
INSCoV-006

>  <HBA> (INSCoV-006)
4

>  <HBD> (INSCoV-006)
4

>  <MCE-18> (INSCoV-006)
104.42

>  <nRot> (INSCoV-006)
9

>  <TopoPSA> (INSCoV-006)
119.75

>  <chembl_closest> (INSCoV-006)
CHEMBL569444

>  <chembl_max_sim> (INSCoV-006)
0.77

>  <nSC> (INSCoV-006)
1

>  <nAR> (INSCoV-006)
3

>  <MW> (INSCoV-006)
610.19

$$$$

  -ISIS-  -- StrEd -- 

 38 41  0  0  0  0  0  0  0  0999 V2000
    6.9018    1.7568    0.0000 N   0  0  0  0  0  0  0  0  0  0  0  0
    6.0357    1.2563    0.0000 C   0  0  0  0  0  0  0  0  0  0  0  0
    6.0357    0.2568    0.0000 S   0  0  0  0  0  0  0  0  0  0  0  0
    5.0362    0.2568    0.0000 O   0  0  0  0  0  0  0  0  0  0  0  0
    7.0359    0.2568    0.0000 O   0  0  0  0  0  0  0  0  0  0  0  0
    6.0357   -0.7434    0.0000 N   0  0  0  0  0  0  0  0  0  0  0  0
    5.1696   -1.2432    0.0000 C   0  0  0  0  0  0  0  0  0  0  0  0
    5.1696   -2.2431    0.0000 C   0  0  0  0  0  0  0  0  0  0  0  0
    4.3040   -2.7436    0.0000 C   0  0  0  0  0  0  0  0  0  0  0  0
    3.4379   -2.2431    0.0000 C   0  0  0  0  0  0  0  0  0  0  0  0
    3.4379   -1.2432    0.0000 C   0  0  0  0  0  0  0  0  0  0  0  0
    2.5718   -0.7434    0.0000 N   0  0  0  0  0  0  0  0  0  0  0  0
    1.7058   -1.2432    0.0000 C   0  0  0  0  0  0  0  0  0  0  0  0
    1.7058   -2.2431    0.0000 O   0  0  0  0  0  0  0  0  0  0  0  0
    0.8397   -0.7434    0.0000 C   0  0  0  0  0  0  0  0  0  0  0  0
   -0.0741   -1.1501    0.0000 C   0  0  0  0  0  0  0  0  0  0  0  0
   -0.7429   -0.4070    0.0000 N   0  0  0  0  0  0  0  0  0  0  0  0
   -1.7372   -0.5114    0.0000 C   0  0  0  0  0  0  0  0  0  0  0  0
   -2.1442   -1.4252    0.0000 C   0  0  1  0  0  0  0  0  0  0  0  0
   -1.5563   -2.2341    0.0000 O   0  0  0  0  0  0  0  0  0  0  0  0
   -3.1389   -1.5299    0.0000 C   0  0  0  0  0  0  0  0  0  0  0  0
   -3.5452   -2.4430    0.0000 C   0  0  0  0  0  0  0  0  0  0  0  0
   -4.5401   -2.5477    0.0000 C   0  0  0  0  0  0  0  0  0  0  0  0
   -5.1281   -1.7385    0.0000 C   0  0  0  0  0  0  0  0  0  0  0  0
   -6.1221   -1.8434    0.0000 C   0  0  0  0  0  0  0  0  0  0  0  0
   -7.0359   -1.4364    0.0000 F   0  0  0  0  0  0  0  0  0  0  0  0
   -6.2263   -0.8485    0.0000 F   0  0  0  0  0  0  0  0  0  0  0  0
   -6.5291   -2.7570    0.0000 F   0  0  0  0  0  0  0  0  0  0  0  0
   -4.7211   -0.8250    0.0000 C   0  0  0  0  0  0  0  0  0  0  0  0
   -3.7268   -0.7210    0.0000 C   0  0  0  0  0  0  0  0  0  0  0  0
   -0.2432    0.4587    0.0000 C   0  0  0  0  0  0  0  0  0  0  0  0
   -0.5519    1.4096    0.0000 C   0  0  0  0  0  0  0  0  0  0  0  0
    0.1172    2.1534    0.0000 C   0  0  0  0  0  0  0  0  0  0  0  0
    1.0954    1.9452    0.0000 C   0  0  0  0  0  0  0  0  0  0  0  0
    1.4045    0.9936    0.0000 C   0  0  0  0  0  0  0  0  0  0  0  0
    0.7355    0.2511    0.0000 C   0  0  0  0  0  0  0  0  0  0  0  0
    4.3040   -0.7434    0.0000 C   0  0  0  0  0  0  0  0  0  0  0  0
    6.9018    2.7570    0.0000 C   0  0  0  0  0  0  0  0  0  0  0  0
  1  2  1  0  0  0  0
  1 38  1  0  0  0  0
  2  3  1  0  0  0  0
  3  4  2  0  0  0  0
  3  5  2  0  0  0  0
  3  6  1  0  0  0  0
  6  7  1  0  0  0  0
  7  8  1  0  0  0  0
  7 37  2  0  0  0  0
  8  9  2  0  0  0  0
  9 10  1  0  0  0  0
 10 11  2  0  0  0  0
 11 12  1  0  0  0  0
 11 37  1  0  0  0  0
 12 13  1  0  0  0  0
 13 14  2  0  0  0  0
 13 15  1  0  0  0  0
 15 16  2  0  0  0  0
 15 36  1  0  0  0  0
 16 17  1  0  0  0  0
 17 18  1  0  0  0  0
 17 31  1  0  0  0  0
 18 19  1  0  0  0  0
 19 20  1  0  0  0  0
 19 21  1  1  0  0  0
 21 22  1  0  0  0  0
 21 30  2  0  0  0  0
 22 23  2  0  0  0  0
 23 24  1  0  0  0  0
 24 25  1  0  0  0  0
 24 29  2  0  0  0  0
 25 26  1  0  0  0  0
 25 27  1  0  0  0  0
 25 28  1  0  0  0  0
 29 30  1  0  0  0  0
 31 32  1  0  0  0  0
 31 36  2  0  0  0  0
 32 33  2  0  0  0  0
 33 34  1  0  0  0  0
 34 35  2  0  0  0  0
 35 36  1  0  0  0  0
M  END
>  <ID> (INSCoV-007)
INSCoV-007

>  <HBA> (INSCoV-007)
4

>  <HBD> (INSCoV-007)
5

>  <MCE-18> (INSCoV-007)
56

>  <nRot> (INSCoV-007)
9

>  <TopoPSA> (INSCoV-007)
120.84

>  <chembl_closest> (INSCoV-007)
CHEMBL2440403

>  <chembl_max_sim> (INSCoV-007)
0.71

>  <nSC> (INSCoV-007)
1

>  <nAR> (INSCoV-007)
4

>  <MW> (INSCoV-007)
546.15

$$$$

  -ISIS-  -- StrEd -- 

 44 49  0  0  0  0  0  0  0  0999 V2000
   -1.9651   -1.1426    0.0000 C   0  0  0  0  0  0  0  0  0  0  0  0
   -2.8093   -0.6067    0.0000 C   0  0  1  0  0  0  0  0  0  0  0  0
   -1.9403   -0.1127    0.0000 C   0  0  0  0  0  0  0  0  0  0  0  0
   -1.0776   -0.6186    0.0000 C   0  0  0  0  0  0  0  0  0  0  0  0
   -0.2078   -0.1248    0.0000 C   0  0  0  0  0  0  0  0  0  0  0  0
   -0.2011    0.8748    0.0000 C   0  0  0  0  0  0  0  0  0  0  0  0
    0.6687    1.3694    0.0000 C   0  0  0  0  0  0  0  0  0  0  0  0
    0.6756    2.3690    0.0000 O   0  0  0  0  0  0  0  0  0  0  0  0
    1.5306    0.8630    0.0000 N   0  0  0  0  0  0  0  0  0  0  0  0
    2.4007    1.3567    0.0000 C   0  0  0  0  0  0  0  0  0  0  0  0
    3.2632    0.8508    0.0000 C   0  0  0  0  0  0  0  0  0  0  0  0
    3.2563   -0.1488    0.0000 C   0  0  0  0  0  0  0  0  0  0  0  0
    2.3864   -0.6434    0.0000 C   0  0  0  0  0  0  0  0  0  0  0  0
    1.5240   -0.1367    0.0000 C   0  0  0  0  0  0  0  0  0  0  0  0
    4.1724    0.2513    0.0000 C   0  0  0  0  0  0  0  0  0  0  0  0
    4.8362   -0.4968    0.0000 C   0  0  1  0  0  0  0  0  0  0  0  0
    5.8314   -0.3990    0.0000 C   0  0  0  0  0  0  0  0  0  0  0  0
    6.2450    0.5117    0.0000 C   0  0  0  0  0  0  0  0  0  0  0  0
    7.2399    0.6092    0.0000 C   0  0  0  0  0  0  0  0  0  0  0  0
    7.8219   -0.2039    0.0000 C   0  0  0  0  0  0  0  0  0  0  0  0
    8.8171   -0.1066    0.0000 O   0  0  0  0  0  0  0  0  0  0  0  0
    7.4091   -1.1151    0.0000 C   0  0  0  0  0  0  0  0  0  0  0  0
    6.4136   -1.2121    0.0000 C   0  0  0  0  0  0  0  0  0  0  0  0
    4.3303   -1.3595    0.0000 C   0  0  0  0  0  0  0  0  0  0  0  0
    4.7306   -2.2754    0.0000 O   0  0  0  0  0  0  0  0  0  0  0  0
    3.3541   -1.1446    0.0000 N   0  0  0  0  0  0  0  0  0  0  0  0
   -1.0630    1.3815    0.0000 C   0  0  0  0  0  0  0  0  0  0  0  0
   -1.9329    0.8869    0.0000 C   0  0  0  0  0  0  0  0  0  0  0  0
   -3.4056    0.1965    0.0000 N   0  0  0  0  0  0  0  0  0  0  0  0
   -4.3537   -0.1229    0.0000 C   0  0  0  0  0  0  0  0  0  0  0  0
   -5.1690    0.4568    0.0000 O   0  0  0  0  0  0  0  0  0  0  0  0
   -4.3430   -1.1225    0.0000 N   0  0  0  0  0  0  0  0  0  0  0  0
   -5.1462   -1.7188    0.0000 C   0  0  0  0  0  0  0  0  0  0  0  0
   -6.0634   -1.3220    0.0000 C   0  0  0  0  0  0  0  0  0  0  0  0
   -6.1786   -0.3282    0.0000 C   0  0  0  0  0  0  0  0  0  0  0  0
   -7.0961    0.0686    0.0000 C   0  0  0  0  0  0  0  0  0  0  0  0
   -7.8990   -0.5276    0.0000 C   0  0  0  0  0  0  0  0  0  0  0  0
   -7.7847   -1.5207    0.0000 C   0  0  0  0  0  0  0  0  0  0  0  0
   -8.5876   -2.1169    0.0000 F   0  0  0  0  0  0  0  0  0  0  0  0
   -6.8666   -1.9180    0.0000 C   0  0  0  0  0  0  0  0  0  0  0  0
   -3.3888   -1.4215    0.0000 C   0  0  0  0  0  0  0  0  0  0  0  0
   -3.0703   -2.3690    0.0000 O   0  0  0  0  0  0  0  0  0  0  0  0
    7.9908   -1.9274    0.0000 C   0  0  0  0  0  0  0  0  0  0  0  0
   -8.8171   -0.1301    0.0000 C   0  0  0  0  0  0  0  0  0  0  0  0
  2  1  1  6  0  0  0
  2  3  1  1  0  0  0
  2 29  1  0  0  0  0
  2 41  1  0  0  0  0
  3  4  1  0  0  0  0
  3 28  2  0  0  0  0
  4  5  2  0  0  0  0
  5  6  1  0  0  0  0
  6  7  1  0  0  0  0
  6 27  2  0  0  0  0
  7  8  2  0  0  0  0
  7  9  1  0  0  0  0
  9 10  1  0  0  0  0
  9 14  1  0  0  0  0
 10 11  1  0  0  0  0
 11 12  1  0  0  0  0
 12 13  1  0  0  0  0
 12 15  1  0  0  0  0
 12 26  1  0  0  0  0
 13 14  1  0  0  0  0
 15 16  1  0  0  0  0
 16 17  1  1  0  0  0
 16 24  1  0  0  0  0
 17 18  2  0  0  0  0
 17 23  1  0  0  0  0
 18 19  1  0  0  0  0
 19 20  2  0  0  0  0
 20 21  1  0  0  0  0
 20 22  1  0  0  0  0
 22 23  2  0  0  0  0
 22 43  1  0  0  0  0
 24 25  2  0  0  0  0
 24 26  1  0  0  0  0
 27 28  1  0  0  0  0
 29 30  1  0  0  0  0
 30 31  2  0  0  0  0
 30 32  1  0  0  0  0
 32 33  1  0  0  0  0
 32 41  1  0  0  0  0
 33 34  1  0  0  0  0
 34 35  2  0  0  0  0
 34 40  1  0  0  0  0
 35 36  1  0  0  0  0
 36 37  2  0  0  0  0
 37 38  1  0  0  0  0
 37 44  1  0  0  0  0
 38 39  1  0  0  0  0
 38 40  2  0  0  0  0
 41 42  2  0  0  0  0
M  END
>  <ID> (INSCoV-008)
INSCoV-008

>  <HBA> (INSCoV-008)
5

>  <HBD> (INSCoV-008)
3

>  <MCE-18> (INSCoV-008)
169.57

>  <nRot> (INSCoV-008)
5

>  <TopoPSA> (INSCoV-008)
119.05

>  <chembl_closest> (INSCoV-008)
CHEMBL389811

>  <chembl_max_sim> (INSCoV-008)
0.85

>  <nSC> (INSCoV-008)
2

>  <nAR> (INSCoV-008)
3

>  <MW> (INSCoV-008)
598.26

$$$$

  -ISIS-  -- StrEd -- 

 43 48  0  0  0  0  0  0  0  0999 V2000
   -2.0751   -0.8584    0.0000 C   0  0  0  0  0  0  0  0  0  0  0  0
   -2.8692   -0.2501    0.0000 C   0  0  1  0  0  0  0  0  0  0  0  0
   -1.9601    0.1658    0.0000 C   0  0  0  0  0  0  0  0  0  0  0  0
   -1.8652    1.1614    0.0000 C   0  0  0  0  0  0  0  0  0  0  0  0
   -0.9561    1.5767    0.0000 C   0  0  0  0  0  0  0  0  0  0  0  0
   -0.1412    0.9972    0.0000 C   0  0  0  0  0  0  0  0  0  0  0  0
    0.7687    1.4131    0.0000 C   0  0  0  0  0  0  0  0  0  0  0  0
    0.8628    2.4086    0.0000 O   0  0  0  0  0  0  0  0  0  0  0  0
    1.5833    0.8338    0.0000 N   0  0  0  0  0  0  0  0  0  0  0  0
    2.4924    1.2489    0.0000 C   0  0  0  0  0  0  0  0  0  0  0  0
    3.3078    0.6696    0.0000 C   0  0  0  0  0  0  0  0  0  0  0  0
    3.2129   -0.3259    0.0000 C   0  0  0  0  0  0  0  0  0  0  0  0
    2.3038   -0.7421    0.0000 C   0  0  0  0  0  0  0  0  0  0  0  0
    1.4889   -0.1625    0.0000 C   0  0  0  0  0  0  0  0  0  0  0  0
    4.1611   -0.0077    0.0000 C   0  0  0  0  0  0  0  0  0  0  0  0
    4.7565   -0.8105    0.0000 C   0  0  1  0  0  0  0  0  0  0  0  0
    5.7570   -0.8004    0.0000 C   0  0  0  0  0  0  0  0  0  0  0  0
    6.2651   -1.6616    0.0000 C   0  0  0  0  0  0  0  0  0  0  0  0
    7.2653   -1.6517    0.0000 C   0  0  0  0  0  0  0  0  0  0  0  0
    7.7565   -0.7804    0.0000 C   0  0  0  0  0  0  0  0  0  0  0  0
    8.7567   -0.7711    0.0000 O   0  0  0  0  0  0  0  0  0  0  0  0
    7.2480    0.0802    0.0000 C   0  0  0  0  0  0  0  0  0  0  0  0
    6.2479    0.0701    0.0000 C   0  0  0  0  0  0  0  0  0  0  0  0
    4.1772   -1.6252    0.0000 C   0  0  0  0  0  0  0  0  0  0  0  0
    4.4954   -2.5728    0.0000 O   0  0  0  0  0  0  0  0  0  0  0  0
    3.2227   -1.3261    0.0000 N   0  0  0  0  0  0  0  0  0  0  0  0
   -0.2356    0.0016    0.0000 C   0  0  0  0  0  0  0  0  0  0  0  0
   -1.1447   -0.4143    0.0000 C   0  0  0  0  0  0  0  0  0  0  0  0
   -3.3929    0.6017    0.0000 N   0  0  0  0  0  0  0  0  0  0  0  0
   -4.3652    0.3672    0.0000 C   0  0  0  0  0  0  0  0  0  0  0  0
   -5.1262    1.0158    0.0000 O   0  0  0  0  0  0  0  0  0  0  0  0
   -4.4415   -0.6297    0.0000 N   0  0  0  0  0  0  0  0  0  0  0  0
   -5.2937   -1.1534    0.0000 C   0  0  0  0  0  0  0  0  0  0  0  0
   -6.1734   -0.6775    0.0000 C   0  0  0  0  0  0  0  0  0  0  0  0
   -6.2008    0.3226    0.0000 C   0  0  0  0  0  0  0  0  0  0  0  0
   -7.0800    0.7985    0.0000 C   0  0  0  0  0  0  0  0  0  0  0  0
   -7.9319    0.2747    0.0000 C   0  0  0  0  0  0  0  0  0  0  0  0
   -7.9045   -0.7246    0.0000 C   0  0  0  0  0  0  0  0  0  0  0  0
   -8.7567   -1.2484    0.0000 O   0  0  0  0  0  0  0  0  0  0  0  0
   -7.0256   -1.2005    0.0000 C   0  0  0  0  0  0  0  0  0  0  0  0
   -3.5177   -1.0111    0.0000 C   0  0  0  0  0  0  0  0  0  0  0  0
   -3.2826   -1.9834    0.0000 O   0  0  0  0  0  0  0  0  0  0  0  0
   -0.8609    2.5728    0.0000 C   0  0  0  0  0  0  0  0  0  0  0  0
  2  1  1  6  0  0  0
  2  3  1  1  0  0  0
  2 29  1  0  0  0  0
  2 41  1  0  0  0  0
  3  4  1  0  0  0  0
  3 28  2  0  0  0  0
  4  5  2  0  0  0  0
  5  6  1  0  0  0  0
  5 43  1  0  0  0  0
  6  7  1  0  0  0  0
  6 27  2  0  0  0  0
  7  8  2  0  0  0  0
  7  9  1  0  0  0  0
  9 10  1  0  0  0  0
  9 14  1  0  0  0  0
 10 11  1  0  0  0  0
 11 12  1  0  0  0  0
 12 13  1  0  0  0  0
 12 15  1  0  0  0  0
 12 26  1  0  0  0  0
 13 14  1  0  0  0  0
 15 16  1  0  0  0  0
 16 17  1  1  0  0  0
 16 24  1  0  0  0  0
 17 18  1  0  0  0  0
 17 23  2  0  0  0  0
 18 19  2  0  0  0  0
 19 20  1  0  0  0  0
 20 21  1  0  0  0  0
 20 22  2  0  0  0  0
 22 23  1  0  0  0  0
 24 25  2  0  0  0  0
 24 26  1  0  0  0  0
 27 28  1  0  0  0  0
 29 30  1  0  0  0  0
 30 31  2  0  0  0  0
 30 32  1  0  0  0  0
 32 33  1  0  0  0  0
 32 41  1  0  0  0  0
 33 34  1  0  0  0  0
 34 35  1  0  0  0  0
 34 40  2  0  0  0  0
 35 36  2  0  0  0  0
 36 37  1  0  0  0  0
 37 38  2  0  0  0  0
 38 39  1  0  0  0  0
 38 40  1  0  0  0  0
 41 42  2  0  0  0  0
M  END
>  <ID> (INSCoV-009)
INSCoV-009

>  <HBA> (INSCoV-009)
6

>  <HBD> (INSCoV-009)
4

>  <MCE-18> (INSCoV-009)
165.82

>  <nRot> (INSCoV-009)
5

>  <TopoPSA> (INSCoV-009)
139.28

>  <chembl_closest> (INSCoV-009)
CHEMBL2043011

>  <chembl_max_sim> (INSCoV-009)
0.85

>  <nSC> (INSCoV-009)
2

>  <nAR> (INSCoV-009)
3

>  <MW> (INSCoV-009)
582.25

$$$$

  -ISIS-  -- StrEd -- 

 38 44  0  0  0  0  0  0  0  0999 V2000
   -5.5005    0.3037    0.0000 C   0  0  0  0  0  0  0  0  0  0  0  0
   -6.4606    0.0233    0.0000 C   0  0  0  0  0  0  0  0  0  0  0  0
   -6.4908   -0.9761    0.0000 C   0  0  0  0  0  0  0  0  0  0  0  0
   -5.5494   -1.3134    0.0000 S   0  0  0  0  0  0  0  0  0  0  0  0
   -4.9375   -0.5225    0.0000 C   0  0  0  0  0  0  0  0  0  0  0  0
   -3.9379   -0.5520    0.0000 C   0  0  0  0  0  0  0  0  0  0  0  0
   -3.4643   -1.4327    0.0000 O   0  0  0  0  0  0  0  0  0  0  0  0
   -3.4120    0.2986    0.0000 C   0  0  0  0  0  0  0  0  0  0  0  0
   -2.4125    0.2689    0.0000 C   0  0  0  0  0  0  0  0  0  0  0  0
   -1.8873    1.1195    0.0000 N   0  0  0  0  0  0  0  0  0  0  0  0
   -2.1171    2.0929    0.0000 C   0  0  0  0  0  0  0  0  0  0  0  0
   -1.1437    2.3222    0.0000 C   0  0  0  0  0  0  0  0  0  0  0  0
   -0.9137    1.3495    0.0000 C   0  0  2  0  0  0  0  0  0  0  0  0
   -0.0503    1.8537    0.0000 C   0  0  0  0  0  0  0  0  0  0  0  0
    0.0492    2.8488    0.0000 O   0  0  0  0  0  0  0  0  0  0  0  0
    0.6960    1.1883    0.0000 N   0  0  0  0  0  0  0  0  0  0  0  0
    0.2940    0.2726    0.0000 C   0  0  0  0  0  0  0  0  0  0  0  0
    0.5074   -0.7040    0.0000 C   0  0  0  0  0  0  0  0  0  0  0  0
    1.4229   -1.1067    0.0000 N   0  0  0  0  0  0  0  0  0  0  0  0
    1.6356   -2.0839    0.0000 C   0  0  0  0  0  0  0  0  0  0  0  0
    0.9704   -2.8303    0.0000 O   0  0  0  0  0  0  0  0  0  0  0  0
    2.6302   -2.1829    0.0000 C   0  0  0  0  0  0  0  0  0  0  0  0
    3.3770   -2.8488    0.0000 N   0  0  0  0  0  0  0  0  0  0  0  0
    4.2406   -2.3439    0.0000 N   0  0  0  0  0  0  0  0  0  0  0  0
    4.0273   -1.3671    0.0000 C   0  0  0  0  0  0  0  0  0  0  0  0
    4.6931   -0.6208    0.0000 C   0  0  0  0  0  0  0  0  0  0  0  0
    4.3794    0.3288    0.0000 C   0  0  0  0  0  0  0  0  0  0  0  0
    5.0448    1.0756    0.0000 C   0  0  0  0  0  0  0  0  0  0  0  0
    6.0241    0.8723    0.0000 C   0  0  0  0  0  0  0  0  0  0  0  0
    6.3373   -0.0773    0.0000 C   0  0  0  0  0  0  0  0  0  0  0  0
    7.3169   -0.2799    0.0000 F   0  0  0  0  0  0  0  0  0  0  0  0
    5.6720   -0.8236    0.0000 C   0  0  0  0  0  0  0  0  0  0  0  0
    3.0328   -1.2672    0.0000 C   0  0  0  0  0  0  0  0  0  0  0  0
    2.2858   -0.6018    0.0000 C   0  0  0  0  0  0  0  0  0  0  0  0
   -0.3562   -1.2089    0.0000 C   0  0  0  0  0  0  0  0  0  0  0  0
   -1.1030   -0.5430    0.0000 C   0  0  0  0  0  0  0  0  0  0  0  0
   -0.7010    0.3720    0.0000 N   0  0  0  0  0  0  0  0  0  0  0  0
   -7.3169   -1.5393    0.0000 C   0  0  0  0  0  0  0  0  0  0  0  0
  1  2  1  0  0  0  0
  1  5  2  0  0  0  0
  2  3  2  0  0  0  0
  3  4  1  0  0  0  0
  3 38  1  0  0  0  0
  4  5  1  0  0  0  0
  5  6  1  0  0  0  0
  6  7  2  0  0  0  0
  6  8  1  0  0  0  0
  8  9  1  0  0  0  0
  9 10  1  0  0  0  0
 10 11  1  0  0  0  0
 13 10  1  6  0  0  0
 11 12  1  0  0  0  0
 13 12  1  1  0  0  0
 13 14  1  0  0  0  0
 13 37  1  0  0  0  0
 14 15  2  0  0  0  0
 14 16  1  0  0  0  0
 16 17  1  0  0  0  0
 17 18  2  0  0  0  0
 17 37  1  0  0  0  0
 18 19  1  0  0  0  0
 18 35  1  0  0  0  0
 19 20  1  0  0  0  0
 19 34  1  0  0  0  0
 20 21  2  0  0  0  0
 20 22  1  0  0  0  0
 22 23  1  0  0  0  0
 22 33  2  0  0  0  0
 23 24  1  0  0  0  0
 24 25  2  0  0  0  0
 25 26  1  0  0  0  0
 25 33  1  0  0  0  0
 26 27  1  0  0  0  0
 26 32  2  0  0  0  0
 27 28  2  0  0  0  0
 28 29  1  0  0  0  0
 29 30  2  0  0  0  0
 30 31  1  0  0  0  0
 30 32  1  0  0  0  0
 33 34  1  0  0  0  0
 35 36  2  0  0  0  0
 36 37  1  0  0  0  0
M  END
>  <ID> (INSCoV-010)
INSCoV-010

>  <HBA> (INSCoV-010)
4

>  <HBD> (INSCoV-010)
3

>  <MCE-18> (INSCoV-010)
165.18

>  <nRot> (INSCoV-010)
6

>  <TopoPSA> (INSCoV-010)
131.57

>  <chembl_closest> (INSCoV-010)
CHEMBL4078138

>  <chembl_max_sim> (INSCoV-010)
0.76

>  <nSC> (INSCoV-010)
1

>  <nAR> (INSCoV-010)
4

>  <MW> (INSCoV-010)
530.15

$$$$

  -ISIS-  -- StrEd -- 

 41 46  0  0  0  0  0  0  0  0999 V2000
    6.3004    2.6987    0.0000 C   0  0  0  0  0  0  0  0  0  0  0  0
    6.7994    3.5647    0.0000 C   0  0  0  0  0  0  0  0  0  0  0  0
    6.8005    1.8327    0.0000 C   0  0  0  0  0  0  0  0  0  0  0  0
    6.3008    0.9667    0.0000 C   0  0  0  0  0  0  0  0  0  0  0  0
    5.3008    0.9661    0.0000 C   0  0  0  0  0  0  0  0  0  0  0  0
    4.8016    0.0997    0.0000 N   0  0  0  0  0  0  0  0  0  0  0  0
    3.8015    0.0990    0.0000 S   0  0  0  0  0  0  0  0  0  0  0  0
    3.8008    1.0993    0.0000 O   0  0  0  0  0  0  0  0  0  0  0  0
    3.8019   -0.9006    0.0000 O   0  0  0  0  0  0  0  0  0  0  0  0
    2.8018    0.0986    0.0000 C   0  0  0  0  0  0  0  0  0  0  0  0
    2.3011    0.9646    0.0000 C   0  0  0  0  0  0  0  0  0  0  0  0
    1.3008    0.9642    0.0000 C   0  0  0  0  0  0  0  0  0  0  0  0
    0.8012    0.0975    0.0000 C   0  0  0  0  0  0  0  0  0  0  0  0
   -0.1985    0.0975    0.0000 C   0  0  1  0  0  0  0  0  0  0  0  0
   -0.7874    0.9064    0.0000 N   0  0  0  0  0  0  0  0  0  0  0  0
   -1.7379    0.5965    0.0000 C   0  0  0  0  0  0  0  0  0  0  0  0
   -2.5472    1.1846    0.0000 O   0  0  0  0  0  0  0  0  0  0  0  0
   -1.7375   -0.4036    0.0000 N   0  0  0  0  0  0  0  0  0  0  0  0
   -2.5461   -0.9914    0.0000 C   0  0  0  0  0  0  0  0  0  0  0  0
   -3.4597   -0.5853    0.0000 C   0  0  1  0  0  0  0  0  0  0  0  0
   -3.5645    0.4093    0.0000 C   0  0  0  0  0  0  0  0  0  0  0  0
   -4.2684   -1.1735    0.0000 C   0  0  0  0  0  0  0  0  0  0  0  0
   -4.1638   -2.1676    0.0000 C   0  0  0  0  0  0  0  0  0  0  0  0
   -4.9720   -2.7561    0.0000 C   0  0  0  0  0  0  0  0  0  0  0  0
   -5.8864   -2.3498    0.0000 C   0  0  0  0  0  0  0  0  0  0  0  0
   -5.9912   -1.3554    0.0000 C   0  0  0  0  0  0  0  0  0  0  0  0
   -6.8005   -0.7680    0.0000 O   0  0  0  0  0  0  0  0  0  0  0  0
   -6.4923    0.1832    0.0000 C   0  0  0  0  0  0  0  0  0  0  0  0
   -5.4922    0.1836    0.0000 C   0  0  0  0  0  0  0  0  0  0  0  0
   -5.1826   -0.7670    0.0000 C   0  0  0  0  0  0  0  0  0  0  0  0
   -0.7863   -0.7121    0.0000 C   0  0  0  0  0  0  0  0  0  0  0  0
   -1.4547   -1.4555    0.0000 C   0  0  0  0  0  0  0  0  0  0  0  0
   -1.1455   -2.4061    0.0000 C   0  0  0  0  0  0  0  0  0  0  0  0
   -0.1670   -2.6141    0.0000 N   0  0  0  0  0  0  0  0  0  0  0  0
    0.5013   -1.8703    0.0000 C   0  0  0  0  0  0  0  0  0  0  0  0
    0.1921   -0.9198    0.0000 C   0  0  0  0  0  0  0  0  0  0  0  0
    1.3019   -0.7680    0.0000 C   0  0  0  0  0  0  0  0  0  0  0  0
    2.3022   -0.7674    0.0000 C   0  0  0  0  0  0  0  0  0  0  0  0
    4.8005    1.8317    0.0000 C   0  0  0  0  0  0  0  0  0  0  0  0
    5.3001    2.6983    0.0000 C   0  0  0  0  0  0  0  0  0  0  0  0
    0.1422   -3.5647    0.0000 C   0  0  0  0  0  0  0  0  0  0  0  0
  1  2  1  0  0  0  0
  1  3  1  0  0  0  0
  1 40  2  0  0  0  0
  3  4  2  0  0  0  0
  4  5  1  0  0  0  0
  5  6  1  0  0  0  0
  5 39  2  0  0  0  0
  6  7  1  0  0  0  0
  7  8  2  0  0  0  0
  7  9  2  0  0  0  0
  7 10  1  0  0  0  0
 10 11  1  0  0  0  0
 10 38  2  0  0  0  0
 11 12  2  0  0  0  0
 12 13  1  0  0  0  0
 14 13  1  6  0  0  0
 13 37  2  0  0  0  0
 14 15  1  0  0  0  0
 14 31  1  0  0  0  0
 15 16  1  0  0  0  0
 16 17  2  0  0  0  0
 16 18  1  0  0  0  0
 18 19  1  0  0  0  0
 18 31  1  0  0  0  0
 19 20  1  0  0  0  0
 20 21  1  6  0  0  0
 20 22  1  0  0  0  0
 22 23  1  0  0  0  0
 22 30  2  0  0  0  0
 23 24  2  0  0  0  0
 24 25  1  0  0  0  0
 25 26  2  0  0  0  0
 26 27  1  0  0  0  0
 26 30  1  0  0  0  0
 27 28  1  0  0  0  0
 28 29  2  0  0  0  0
 29 30  1  0  0  0  0
 31 32  1  0  0  0  0
 31 36  1  0  0  0  0
 32 33  1  0  0  0  0
 33 34  1  0  0  0  0
 34 35  1  0  0  0  0
 34 41  1  0  0  0  0
 35 36  1  0  0  0  0
 37 38  1  0  0  0  0
 39 40  1  0  0  0  0
M  END
>  <ID> (INSCoV-011)
INSCoV-011

>  <HBA> (INSCoV-011)
4

>  <HBD> (INSCoV-011)
3

>  <MCE-18> (INSCoV-011)
154.05

>  <nRot> (INSCoV-011)
7

>  <TopoPSA> (INSCoV-011)
103.27

>  <chembl_closest> (INSCoV-011)
CHEMBL1724124

>  <chembl_max_sim> (INSCoV-011)
0.79

>  <nSC> (INSCoV-011)
2

>  <nAR> (INSCoV-011)
4

>  <MW> (INSCoV-011)
572.25

$$$$

  -ISIS-  -- StrEd -- 

 42 46  0  0  0  0  0  0  0  0999 V2000
    0.5001   -2.5311    0.0000 O   0  0  0  0  0  0  0  0  0  0  0  0
    0.0002   -1.6654    0.0000 C   0  0  0  0  0  0  0  0  0  0  0  0
    0.5001   -0.7991    0.0000 N   0  0  0  0  0  0  0  0  0  0  0  0
    1.4999   -0.7991    0.0000 C   0  0  0  0  0  0  0  0  0  0  0  0
    2.0000    0.0670    0.0000 C   0  0  0  0  0  0  0  0  0  0  0  0
    3.0000    0.0670    0.0000 C   0  0  0  0  0  0  0  0  0  0  0  0
    3.5003   -0.7991    0.0000 C   0  0  0  0  0  0  0  0  0  0  0  0
    4.5000   -0.7991    0.0000 C   0  0  0  0  0  0  0  0  0  0  0  0
    4.9999    0.0670    0.0000 C   0  0  0  0  0  0  0  0  0  0  0  0
    4.5000    0.9330    0.0000 C   0  0  0  0  0  0  0  0  0  0  0  0
    4.9999    1.7991    0.0000 N   0  0  0  0  0  0  0  0  0  0  0  0
    4.5000    2.6654    0.0000 C   0  0  0  0  0  0  0  0  0  0  0  0
    4.9999    3.5311    0.0000 C   0  0  0  0  0  0  0  0  0  0  0  0
    5.9999    3.5311    0.0000 C   0  0  0  0  0  0  0  0  0  0  0  0
    6.5000    2.6654    0.0000 C   0  0  0  0  0  0  0  0  0  0  0  0
    5.9999    1.7991    0.0000 C   0  0  0  0  0  0  0  0  0  0  0  0
    5.9999    0.0670    0.0000 C   0  0  0  0  0  0  0  0  0  0  0  0
    6.5000   -0.7991    0.0000 C   0  0  0  0  0  0  0  0  0  0  0  0
    5.9999   -1.6654    0.0000 N   0  0  0  0  0  0  0  0  0  0  0  0
    4.9999   -1.6654    0.0000 C   0  0  0  0  0  0  0  0  0  0  0  0
    4.5000   -2.5311    0.0000 O   0  0  0  0  0  0  0  0  0  0  0  0
    3.0000   -1.6654    0.0000 C   0  0  0  0  0  0  0  0  0  0  0  0
    2.0000   -1.6654    0.0000 C   0  0  0  0  0  0  0  0  0  0  0  0
   -1.0002   -1.6654    0.0000 C   0  0  2  0  0  0  0  0  0  0  0  0
   -1.4999   -2.5311    0.0000 N   0  0  0  0  0  0  0  0  0  0  0  0
   -2.4999   -2.5311    0.0000 S   0  0  0  0  0  0  0  0  0  0  0  0
   -2.4999   -1.5312    0.0000 O   0  0  0  0  0  0  0  0  0  0  0  0
   -2.4999   -3.5311    0.0000 O   0  0  0  0  0  0  0  0  0  0  0  0
   -3.4999   -2.5311    0.0000 C   0  0  0  0  0  0  0  0  0  0  0  0
   -3.9999   -3.3969    0.0000 C   0  0  0  0  0  0  0  0  0  0  0  0
   -4.9999   -3.3969    0.0000 C   0  0  0  0  0  0  0  0  0  0  0  0
   -5.5000   -2.5311    0.0000 C   0  0  0  0  0  0  0  0  0  0  0  0
   -4.9999   -1.6654    0.0000 C   0  0  0  0  0  0  0  0  0  0  0  0
   -3.9999   -1.6654    0.0000 C   0  0  0  0  0  0  0  0  0  0  0  0
   -1.4999   -0.7991    0.0000 C   0  0  0  0  0  0  0  0  0  0  0  0
   -2.4999   -0.7991    0.0000 C   0  0  0  0  0  0  0  0  0  0  0  0
   -3.0000    0.0670    0.0000 C   0  0  0  0  0  0  0  0  0  0  0  0
   -2.4999    0.9330    0.0000 C   0  0  0  0  0  0  0  0  0  0  0  0
   -1.4999    0.9330    0.0000 C   0  0  0  0  0  0  0  0  0  0  0  0
   -1.0002    0.0670    0.0000 C   0  0  0  0  0  0  0  0  0  0  0  0
    0.0002    0.0670    0.0000 F   0  0  0  0  0  0  0  0  0  0  0  0
   -6.5000   -2.5311    0.0000 F   0  0  0  0  0  0  0  0  0  0  0  0
  1  2  2  0  0  0  0
  2  3  1  0  0  0  0
  2 24  1  0  0  0  0
  3  4  1  0  0  0  0
  4  5  1  0  0  0  0
  4 23  2  0  0  0  0
  5  6  2  0  0  0  0
  6  7  1  0  0  0  0
  7  8  1  0  0  0  0
  7 22  2  0  0  0  0
  8  9  2  0  0  0  0
  8 20  1  0  0  0  0
  9 10  1  0  0  0  0
  9 17  1  0  0  0  0
 10 11  1  0  0  0  0
 11 12  1  0  0  0  0
 11 16  1  0  0  0  0
 12 13  1  0  0  0  0
 13 14  1  0  0  0  0
 14 15  1  0  0  0  0
 15 16  1  0  0  0  0
 17 18  2  0  0  0  0
 18 19  1  0  0  0  0
 19 20  1  0  0  0  0
 20 21  2  0  0  0  0
 22 23  1  0  0  0  0
 24 25  1  6  0  0  0
 24 35  1  0  0  0  0
 25 26  1  0  0  0  0
 26 27  2  0  0  0  0
 26 28  2  0  0  0  0
 26 29  1  0  0  0  0
 29 30  1  0  0  0  0
 29 34  2  0  0  0  0
 30 31  2  0  0  0  0
 31 32  1  0  0  0  0
 32 33  2  0  0  0  0
 32 42  1  0  0  0  0
 33 34  1  0  0  0  0
 35 36  1  0  0  0  0
 35 40  2  0  0  0  0
 36 37  2  0  0  0  0
 37 38  1  0  0  0  0
 38 39  2  0  0  0  0
 39 40  1  0  0  0  0
 40 41  1  0  0  0  0
M  END
>  <ID> (INSCoV-012)
INSCoV-012

>  <HBA> (INSCoV-012)
4

>  <HBD> (INSCoV-012)
4

>  <MCE-18> (INSCoV-012)
97.89

>  <nRot> (INSCoV-012)
9

>  <TopoPSA> (INSCoV-012)
119.75

>  <chembl_closest> (INSCoV-012)
CHEMBL332654

>  <chembl_max_sim> (INSCoV-012)
0.78

>  <nSC> (INSCoV-012)
1

>  <nAR> (INSCoV-012)
3

>  <MW> (INSCoV-012)
592.2

$$$$

  -ISIS-  -- StrEd -- 

 37 40  0  0  0  0  0  0  0  0999 V2000
    2.6506   -3.0658    0.0000 N   0  0  0  0  0  0  0  0  0  0  0  0
    2.6431   -2.0652    0.0000 C   0  0  0  0  0  0  0  0  0  0  0  0
    1.7735   -1.5723    0.0000 C   0  0  0  0  0  0  0  0  0  0  0  0
    1.7657   -0.5725    0.0000 C   0  0  2  0  0  0  0  0  0  0  0  0
    0.8958   -0.0785    0.0000 C   0  0  0  0  0  0  0  0  0  0  0  0
    0.8886    0.9211    0.0000 O   0  0  0  0  0  0  0  0  0  0  0  0
    0.0337   -0.5847    0.0000 N   0  0  0  0  0  0  0  0  0  0  0  0
   -0.8360   -0.0913    0.0000 C   0  0  0  0  0  0  0  0  0  0  0  0
   -0.8437    0.9085    0.0000 C   0  0  0  0  0  0  0  0  0  0  0  0
   -1.7131    1.4020    0.0000 C   0  0  0  0  0  0  0  0  0  0  0  0
   -2.5755    0.8950    0.0000 C   0  0  0  0  0  0  0  0  0  0  0  0
   -3.4454    1.3884    0.0000 C   0  0  0  0  0  0  0  0  0  0  0  0
   -3.4529    2.3886    0.0000 N   0  0  0  0  0  0  0  0  0  0  0  0
   -4.2657    2.9708    0.0000 C   0  0  0  0  0  0  0  0  0  0  0  0
   -5.2148    2.6542    0.0000 O   0  0  0  0  0  0  0  0  0  0  0  0
   -3.9638    3.9238    0.0000 C   0  0  0  0  0  0  0  0  0  0  0  0
   -2.9637    3.9317    0.0000 C   0  0  0  0  0  0  0  0  0  0  0  0
   -2.6482    2.9824    0.0000 C   0  0  0  0  0  0  0  0  0  0  0  0
   -1.6950    2.6807    0.0000 O   0  0  0  0  0  0  0  0  0  0  0  0
   -2.5680   -0.1046    0.0000 C   0  0  0  0  0  0  0  0  0  0  0  0
   -3.4299   -0.6113    0.0000 C   0  0  0  0  0  0  0  0  0  0  0  0
   -4.3003   -0.1173    0.0000 C   0  0  0  0  0  0  0  0  0  0  0  0
   -5.1622   -0.6238    0.0000 C   0  0  0  0  0  0  0  0  0  0  0  0
   -5.1542   -1.6244    0.0000 N   0  0  0  0  0  0  0  0  0  0  0  0
   -4.2843   -2.1171    0.0000 C   0  0  0  0  0  0  0  0  0  0  0  0
   -4.2776   -3.1172    0.0000 C   0  0  0  0  0  0  0  0  0  0  0  0
   -3.4224   -1.6114    0.0000 C   0  0  0  0  0  0  0  0  0  0  0  0
   -1.6981   -0.5982    0.0000 C   0  0  0  0  0  0  0  0  0  0  0  0
    2.6281   -0.0655    0.0000 C   0  0  0  0  0  0  0  0  0  0  0  0
    2.6205    0.9346    0.0000 C   0  0  0  0  0  0  0  0  0  0  0  0
    3.4829    1.4408    0.0000 C   0  0  0  0  0  0  0  0  0  0  0  0
    4.3524    0.9473    0.0000 C   0  0  0  0  0  0  0  0  0  0  0  0
    4.3602   -0.0528    0.0000 C   0  0  0  0  0  0  0  0  0  0  0  0
    3.4978   -0.5586    0.0000 C   0  0  0  0  0  0  0  0  0  0  0  0
    5.2148    1.4538    0.0000 F   0  0  0  0  0  0  0  0  0  0  0  0
    1.7848   -3.5656    0.0000 H   0  0  0  0  0  0  0  0  0  0  0  0
    2.1508   -3.9317    0.0000 H   0  0  0  0  0  0  0  0  0  0  0  0
  1  2  1  0  0  0  0
  2  3  1  0  0  0  0
  3  4  1  0  0  0  0
  4  5  1  6  0  0  0
  4 29  1  0  0  0  0
  5  6  2  0  0  0  0
  5  7  1  0  0  0  0
  7  8  1  0  0  0  0
  8  9  1  0  0  0  0
  8 28  2  0  0  0  0
  9 10  2  0  0  0  0
 10 11  1  0  0  0  0
 11 12  1  0  0  0  0
 11 20  2  0  0  0  0
 12 13  1  0  0  0  0
 13 14  1  0  0  0  0
 13 18  1  0  0  0  0
 14 15  2  0  0  0  0
 14 16  1  0  0  0  0
 16 17  1  0  0  0  0
 17 18  1  0  0  0  0
 18 19  2  0  0  0  0
 20 21  1  0  0  0  0
 20 28  1  0  0  0  0
 21 22  2  0  0  0  0
 21 27  1  0  0  0  0
 22 23  1  0  0  0  0
 23 24  2  0  0  0  0
 24 25  1  0  0  0  0
 25 26  1  0  0  0  0
 25 27  2  0  0  0  0
 29 30  1  0  0  0  0
 29 34  2  0  0  0  0
 30 31  2  0  0  0  0
 31 32  1  0  0  0  0
 32 33  2  0  0  0  0
 32 35  1  0  0  0  0
 33 34  1  0  0  0  0
  1 36  1  0  0  0  0
  1 37  1  0  0  0  0
M  END
>  <ID> (INSCoV-013)
INSCoV-013

>  <HBA> (INSCoV-013)
4

>  <HBD> (INSCoV-013)
4

>  <MCE-18> (INSCoV-013)
74.82

>  <nRot> (INSCoV-013)
8

>  <TopoPSA> (INSCoV-013)
105.39

>  <chembl_closest> (INSCoV-013)
CHEMBL3274866

>  <chembl_max_sim> (INSCoV-013)
0.72

>  <nSC> (INSCoV-013)
1

>  <nAR> (INSCoV-013)
3

>  <MW> (INSCoV-013)
474.21

$$$$

  -ISIS-  -- StrEd -- 

 37 41  0  0  0  0  0  0  0  0999 V2000
   -7.5350   -0.7866    0.0000 C   0  0  0  0  0  0  0  0  0  0  0  0
   -6.6711   -0.2817    0.0000 C   0  0  2  0  0  0  0  0  0  0  0  0
   -6.6774    0.7180    0.0000 N   0  0  0  0  0  0  0  0  0  0  0  0
   -5.8027   -0.7767    0.0000 C   0  0  0  0  0  0  0  0  0  0  0  0
   -5.7970   -1.7764    0.0000 O   0  0  0  0  0  0  0  0  0  0  0  0
   -4.9395   -0.2725    0.0000 N   0  0  0  0  0  0  0  0  0  0  0  0
   -4.0704   -0.7670    0.0000 C   0  0  0  0  0  0  0  0  0  0  0  0
   -4.0647   -1.7672    0.0000 C   0  0  0  0  0  0  0  0  0  0  0  0
   -3.1963   -2.2624    0.0000 C   0  0  0  0  0  0  0  0  0  0  0  0
   -2.3331   -1.7575    0.0000 C   0  0  0  0  0  0  0  0  0  0  0  0
   -2.3388   -0.7569    0.0000 C   0  0  0  0  0  0  0  0  0  0  0  0
   -3.2077   -0.2621    0.0000 C   0  0  0  0  0  0  0  0  0  0  0  0
   -3.2135    0.7385    0.0000 N   0  0  0  0  0  0  0  0  0  0  0  0
   -2.3501    1.2427    0.0000 C   0  0  0  0  0  0  0  0  0  0  0  0
   -2.3560    2.2429    0.0000 O   0  0  0  0  0  0  0  0  0  0  0  0
   -1.4813    0.7470    0.0000 C   0  0  0  0  0  0  0  0  0  0  0  0
   -0.6181    1.2524    0.0000 C   0  0  0  0  0  0  0  0  0  0  0  0
    0.2510    0.7574    0.0000 N   0  0  0  0  0  0  0  0  0  0  0  0
    1.1138    1.2623    0.0000 C   0  0  0  0  0  0  0  0  0  0  0  0
    1.1079    2.2624    0.0000 O   0  0  0  0  0  0  0  0  0  0  0  0
    1.9826    0.7670    0.0000 C   0  0  0  0  0  0  0  0  0  0  0  0
    2.0925   -0.2268    0.0000 C   0  0  0  0  0  0  0  0  0  0  0  0
    3.0721   -0.4288    0.0000 C   0  0  0  0  0  0  0  0  0  0  0  0
    3.5674    0.4401    0.0000 C   0  0  0  0  0  0  0  0  0  0  0  0
    4.5616    0.5502    0.0000 C   0  0  0  0  0  0  0  0  0  0  0  0
    5.1535   -0.2553    0.0000 C   0  0  0  0  0  0  0  0  0  0  0  0
    6.1473   -0.1454    0.0000 C   0  0  0  0  0  0  0  0  0  0  0  0
    6.5492    0.7710    0.0000 C   0  0  0  0  0  0  0  0  0  0  0  0
    7.5430    0.8804    0.0000 F   0  0  0  0  0  0  0  0  0  0  0  0
    5.9566    1.5760    0.0000 C   0  0  0  0  0  0  0  0  0  0  0  0
    4.9623    1.4662    0.0000 C   0  0  0  0  0  0  0  0  0  0  0  0
    2.8934    1.1793    0.0000 S   0  0  0  0  0  0  0  0  0  0  0  0
    0.2567   -0.2428    0.0000 C   0  0  0  0  0  0  0  0  0  0  0  0
   -0.6065   -0.7477    0.0000 C   0  0  0  0  0  0  0  0  0  0  0  0
   -1.4749   -0.2525    0.0000 N   0  0  0  0  0  0  0  0  0  0  0  0
   -7.5430    1.2182    0.0000 H   0  0  0  0  0  0  0  0  0  0  0  0
   -6.1777    1.5840    0.0000 H   0  0  0  0  0  0  0  0  0  0  0  0
  1  2  1  0  0  0  0
  2  3  1  6  0  0  0
  2  4  1  0  0  0  0
  4  5  2  0  0  0  0
  4  6  1  0  0  0  0
  6  7  1  0  0  0  0
  7  8  1  0  0  0  0
  7 12  2  0  0  0  0
  8  9  2  0  0  0  0
  9 10  1  0  0  0  0
 10 11  2  0  0  0  0
 11 12  1  0  0  0  0
 11 35  1  0  0  0  0
 12 13  1  0  0  0  0
 13 14  1  0  0  0  0
 14 15  2  0  0  0  0
 14 16  1  0  0  0  0
 16 17  1  0  0  0  0
 16 35  1  0  0  0  0
 17 18  1  0  0  0  0
 18 19  1  0  0  0  0
 18 33  1  0  0  0  0
 19 20  2  0  0  0  0
 19 21  1  0  0  0  0
 21 22  2  0  0  0  0
 21 32  1  0  0  0  0
 22 23  1  0  0  0  0
 23 24  2  0  0  0  0
 24 25  1  0  0  0  0
 24 32  1  0  0  0  0
 25 26  1  0  0  0  0
 25 31  2  0  0  0  0
 26 27  2  0  0  0  0
 27 28  1  0  0  0  0
 28 29  1  0  0  0  0
 28 30  2  0  0  0  0
 30 31  1  0  0  0  0
 33 34  1  0  0  0  0
 34 35  1  0  0  0  0
  3 36  1  0  0  0  0
  3 37  1  0  0  0  0
M  END
>  <ID> (INSCoV-014)
INSCoV-014

>  <HBA> (INSCoV-014)
3

>  <HBD> (INSCoV-014)
5

>  <MCE-18> (INSCoV-014)
94.48

>  <nRot> (INSCoV-014)
4

>  <TopoPSA> (INSCoV-014)
136.01

>  <chembl_closest> (INSCoV-014)
CHEMBL2443210

>  <chembl_max_sim> (INSCoV-014)
0.77

>  <nSC> (INSCoV-014)
2

>  <nAR> (INSCoV-014)
3

>  <MW> (INSCoV-014)
493.16

$$$$

  -ISIS-  -- StrEd -- 

 35 38  0  0  0  0  0  0  0  0999 V2000
    0.4423    3.0634    0.0000 C   0  0  0  0  0  0  0  0  0  0  0  0
    1.3084    2.5632    0.0000 O   0  0  0  0  0  0  0  0  0  0  0  0
    2.1744    3.0634    0.0000 C   0  0  0  0  0  0  0  0  0  0  0  0
    3.0403    2.5632    0.0000 C   0  0  0  0  0  0  0  0  0  0  0  0
    3.9063    3.0634    0.0000 C   0  0  0  0  0  0  0  0  0  0  0  0
    4.7723    2.5632    0.0000 C   0  0  0  0  0  0  0  0  0  0  0  0
    4.7723    1.5632    0.0000 C   0  0  0  0  0  0  0  0  0  0  0  0
    3.9063    1.0633    0.0000 C   0  0  0  0  0  0  0  0  0  0  0  0
    3.9063    0.0634    0.0000 C   0  0  0  0  0  0  0  0  0  0  0  0
    4.7154   -0.5244    0.0000 N   0  0  0  0  0  0  0  0  0  0  0  0
    4.4061   -1.4755    0.0000 N   0  0  0  0  0  0  0  0  0  0  0  0
    3.4066   -1.4755    0.0000 C   0  0  0  0  0  0  0  0  0  0  0  0
    3.0972   -0.5244    0.0000 C   0  0  0  0  0  0  0  0  0  0  0  0
    2.0971   -0.5244    0.0000 C   0  0  0  0  0  0  0  0  0  0  0  0
    1.7883   -1.4755    0.0000 N   0  0  0  0  0  0  0  0  0  0  0  0
    0.8375   -1.7846    0.0000 C   0  0  0  0  0  0  0  0  0  0  0  0
    0.6294   -2.7627    0.0000 O   0  0  0  0  0  0  0  0  0  0  0  0
    0.0943   -1.1152    0.0000 N   0  0  0  0  0  0  0  0  0  0  0  0
   -0.8566   -1.4245    0.0000 C   0  0  1  0  0  0  0  0  0  0  0  0
   -1.0647   -2.4024    0.0000 C   0  0  0  0  0  0  0  0  0  0  0  0
   -1.5999   -0.7552    0.0000 C   0  0  0  0  0  0  0  0  0  0  0  0
   -2.5510   -1.0645    0.0000 C   0  0  2  0  0  0  0  0  0  0  0  0
   -2.7589   -2.0423    0.0000 N   0  0  0  0  0  0  0  0  0  0  0  0
   -3.2943   -0.3951    0.0000 C   0  0  0  0  0  0  0  0  0  0  0  0
   -4.2721   -0.6030    0.0000 S   0  0  0  0  0  0  0  0  0  0  0  0
   -4.7723    0.2629    0.0000 C   0  0  0  0  0  0  0  0  0  0  0  0
   -4.1035    1.0061    0.0000 N   0  0  0  0  0  0  0  0  0  0  0  0
   -3.1896    0.5991    0.0000 C   0  0  0  0  0  0  0  0  0  0  0  0
   -2.3237    1.0993    0.0000 C   0  0  0  0  0  0  0  0  0  0  0  0
   -2.3237    2.0992    0.0000 C   0  0  0  0  0  0  0  0  0  0  0  0
   -1.4577    0.5991    0.0000 C   0  0  0  0  0  0  0  0  0  0  0  0
    2.5970   -2.0634    0.0000 C   0  0  0  0  0  0  0  0  0  0  0  0
    2.5970   -3.0634    0.0000 O   0  0  0  0  0  0  0  0  0  0  0  0
    3.0403    1.5632    0.0000 C   0  0  0  0  0  0  0  0  0  0  0  0
    2.1744    1.0633    0.0000 O   0  0  0  0  0  0  0  0  0  0  0  0
  1  2  1  0  0  0  0
  2  3  1  0  0  0  0
  3  4  1  0  0  0  0
  4  5  1  0  0  0  0
  4 34  2  0  0  0  0
  5  6  2  0  0  0  0
  6  7  1  0  0  0  0
  7  8  2  0  0  0  0
  8  9  1  0  0  0  0
  8 34  1  0  0  0  0
  9 10  2  0  0  0  0
  9 13  1  0  0  0  0
 10 11  1  0  0  0  0
 11 12  1  0  0  0  0
 12 13  2  0  0  0  0
 12 32  1  0  0  0  0
 13 14  1  0  0  0  0
 14 15  1  0  0  0  0
 15 16  1  0  0  0  0
 15 32  1  0  0  0  0
 16 17  2  0  0  0  0
 16 18  1  0  0  0  0
 19 18  1  1  0  0  0
 19 20  1  0  0  0  0
 19 21  1  0  0  0  0
 21 22  1  0  0  0  0
 22 23  1  0  0  0  0
 22 24  1  6  0  0  0
 24 25  1  0  0  0  0
 24 28  2  0  0  0  0
 25 26  1  0  0  0  0
 26 27  2  0  0  0  0
 27 28  1  0  0  0  0
 28 29  1  0  0  0  0
 29 30  1  0  0  0  0
 29 31  1  0  0  0  0
 32 33  2  0  0  0  0
 34 35  1  0  0  0  0
M  END
>  <ID> (INSCoV-015)
INSCoV-015

>  <HBA> (INSCoV-015)
6

>  <HBD> (INSCoV-015)
6

>  <MCE-18> (INSCoV-015)
79.53

>  <nRot> (INSCoV-015)
8

>  <TopoPSA> (INSCoV-015)
174.7

>  <chembl_closest> (INSCoV-015)
CHEMBL3679931

>  <chembl_max_sim> (INSCoV-015)
0.78

>  <nSC> (INSCoV-015)
2

>  <nAR> (INSCoV-015)
3

>  <MW> (INSCoV-015)
498.2

$$$$

  -ISIS-  -- StrEd -- 

 41 47  0  0  0  0  0  0  0  0999 V2000
    2.6167    0.7463    0.0000 O   0  0  0  0  0  0  0  0  0  0  0  0
    3.3818    0.1032    0.0000 S   0  0  0  0  0  0  0  0  0  0  0  0
    3.5398    1.0902    0.0000 O   0  0  0  0  0  0  0  0  0  0  0  0
    4.3618   -0.0978    0.0000 N   0  0  0  0  0  0  0  0  0  0  0  0
    4.6783   -1.0464    0.0000 C   0  0  0  0  0  0  0  0  0  0  0  0
    5.6576   -1.2468    0.0000 C   0  0  0  0  0  0  0  0  0  0  0  0
    5.9740   -2.1954    0.0000 C   0  0  0  0  0  0  0  0  0  0  0  0
    6.9541   -2.3958    0.0000 C   0  0  0  0  0  0  0  0  0  0  0  0
    7.6177   -1.6474    0.0000 C   0  0  0  0  0  0  0  0  0  0  0  0
    7.3012   -0.6988    0.0000 C   0  0  0  0  0  0  0  0  0  0  0  0
    6.3211   -0.4986    0.0000 C   0  0  0  0  0  0  0  0  0  0  0  0
    4.0147   -1.7949    0.0000 N   0  0  0  0  0  0  0  0  0  0  0  0
    3.0355   -1.5947    0.0000 C   0  0  0  0  0  0  0  0  0  0  0  0
    2.7190   -0.6458    0.0000 C   0  0  0  0  0  0  0  0  0  0  0  0
    1.7188   -0.6531    0.0000 C   0  0  1  0  0  0  0  0  0  0  0  0
    0.8009   -0.2576    0.0000 C   0  0  0  0  0  0  0  0  0  0  0  0
    0.6840    0.7361    0.0000 C   0  0  0  0  0  0  0  0  0  0  0  0
   -0.2345    1.1313    0.0000 C   0  0  0  0  0  0  0  0  0  0  0  0
   -1.0365    0.5338    0.0000 N   0  0  0  0  0  0  0  0  0  0  0  0
   -1.9545    0.9298    0.0000 C   0  0  0  0  0  0  0  0  0  0  0  0
   -2.7561    0.3321    0.0000 C   0  0  1  0  0  0  0  0  0  0  0  0
   -3.6749    0.7280    0.0000 C   0  0  0  0  0  0  0  0  0  0  0  0
   -4.4766    0.1306    0.0000 N   0  0  0  0  0  0  0  0  0  0  0  0
   -5.3954    0.5260    0.0000 C   0  0  0  0  0  0  0  0  0  0  0  0
   -6.2545    0.0156    0.0000 N   0  0  0  0  0  0  0  0  0  0  0  0
   -7.0062    0.6759    0.0000 C   0  0  0  0  0  0  0  0  0  0  0  0
   -7.9991    0.5591    0.0000 C   0  0  0  0  0  0  0  0  0  0  0  0
   -8.5969    1.3610    0.0000 C   0  0  0  0  0  0  0  0  0  0  0  0
   -8.2009    2.2790    0.0000 C   0  0  0  0  0  0  0  0  0  0  0  0
   -7.2077    2.3958    0.0000 C   0  0  0  0  0  0  0  0  0  0  0  0
   -6.6102    1.5939    0.0000 C   0  0  0  0  0  0  0  0  0  0  0  0
   -5.6146    1.5018    0.0000 N   0  0  0  0  0  0  0  0  0  0  0  0
   -4.3600   -0.8632    0.0000 C   0  0  0  0  0  0  0  0  0  0  0  0
   -3.4420   -1.2586    0.0000 C   0  0  0  0  0  0  0  0  0  0  0  0
   -2.6401   -0.6609    0.0000 C   0  0  0  0  0  0  0  0  0  0  0  0
   -0.9204   -0.4599    0.0000 C   0  0  0  0  0  0  0  0  0  0  0  0
   -0.0011   -0.8546    0.0000 C   0  0  0  0  0  0  0  0  0  0  0  0
    1.4174   -1.6063    0.0000 C   0  0  0  0  0  0  0  0  0  0  0  0
    2.2304   -2.1882    0.0000 C   0  0  0  0  0  0  0  0  0  0  0  0
    8.5969   -1.8483    0.0000 C   0  0  0  0  0  0  0  0  0  0  0  0
    1.6458    0.3439    0.0000 C   0  0  0  0  0  0  0  0  0  0  0  0
  1  2  2  0  0  0  0
  2  3  2  0  0  0  0
  2  4  1  0  0  0  0
  2 14  1  0  0  0  0
  4  5  2  0  0  0  0
  5  6  1  0  0  0  0
  5 12  1  0  0  0  0
  6  7  1  0  0  0  0
  6 11  2  0  0  0  0
  7  8  2  0  0  0  0
  8  9  1  0  0  0  0
  9 10  2  0  0  0  0
  9 40  1  0  0  0  0
 10 11  1  0  0  0  0
 12 13  1  0  0  0  0
 13 14  2  0  0  0  0
 13 39  1  0  0  0  0
 14 15  1  0  0  0  0
 15 16  1  6  0  0  0
 15 38  1  0  0  0  0
 15 41  1  1  0  0  0
 16 17  1  0  0  0  0
 16 37  1  0  0  0  0
 17 18  1  0  0  0  0
 18 19  1  0  0  0  0
 19 20  1  0  0  0  0
 19 36  1  0  0  0  0
 21 20  1  6  0  0  0
 21 22  1  0  0  0  0
 21 35  1  0  0  0  0
 22 23  1  0  0  0  0
 23 24  1  0  0  0  0
 23 33  1  0  0  0  0
 24 25  2  0  0  0  0
 24 32  1  0  0  0  0
 25 26  1  0  0  0  0
 26 27  1  0  0  0  0
 26 31  2  0  0  0  0
 27 28  2  0  0  0  0
 28 29  1  0  0  0  0
 29 30  2  0  0  0  0
 30 31  1  0  0  0  0
 31 32  1  0  0  0  0
 33 34  1  0  0  0  0
 34 35  1  0  0  0  0
 36 37  1  0  0  0  0
 38 39  1  0  0  0  0
M  END
>  <ID> (INSCoV-016)
INSCoV-016

>  <HBA> (INSCoV-016)
4

>  <HBD> (INSCoV-016)
3

>  <MCE-18> (INSCoV-016)
138.13

>  <nRot> (INSCoV-016)
5

>  <TopoPSA> (INSCoV-016)
102.07

>  <chembl_closest> (INSCoV-016)
CHEMBL549496

>  <chembl_max_sim> (INSCoV-016)
0.77

>  <nSC> (INSCoV-016)
2

>  <nAR> (INSCoV-016)
3

>  <MW> (INSCoV-016)
572.29

$$$$

  -ISIS-  -- StrEd -- 

 42 46  0  0  0  0  0  0  0  0999 V2000
   -4.2014   -3.5020    0.0000 C   0  0  0  0  0  0  0  0  0  0  0  0
   -3.7025   -2.6355    0.0000 C   0  0  0  0  0  0  0  0  0  0  0  0
   -4.2034   -1.7702    0.0000 C   0  0  0  0  0  0  0  0  0  0  0  0
   -3.7047   -0.9037    0.0000 S   0  0  0  0  0  0  0  0  0  0  0  0
   -2.8382   -1.4021    0.0000 O   0  0  0  0  0  0  0  0  0  0  0  0
   -4.5710   -0.4043    0.0000 O   0  0  0  0  0  0  0  0  0  0  0  0
   -3.2058   -0.0365    0.0000 N   0  0  0  0  0  0  0  0  0  0  0  0
   -3.7068    0.8282    0.0000 C   0  0  0  0  0  0  0  0  0  0  0  0
   -4.7073    0.8271    0.0000 C   0  0  0  0  0  0  0  0  0  0  0  0
   -5.2078    1.6931    0.0000 C   0  0  0  0  0  0  0  0  0  0  0  0
   -6.2078    1.6913    0.0000 C   0  0  0  0  0  0  0  0  0  0  0  0
   -6.2089    2.6918    0.0000 F   0  0  0  0  0  0  0  0  0  0  0  0
   -7.2076    1.6902    0.0000 F   0  0  0  0  0  0  0  0  0  0  0  0
   -6.2067    0.6915    0.0000 F   0  0  0  0  0  0  0  0  0  0  0  0
   -4.7091    2.5594    0.0000 C   0  0  0  0  0  0  0  0  0  0  0  0
   -3.7086    2.5612    0.0000 C   0  0  0  0  0  0  0  0  0  0  0  0
   -3.2079    1.6951    0.0000 C   0  0  0  0  0  0  0  0  0  0  0  0
   -2.2080    1.6967    0.0000 N   0  0  0  0  0  0  0  0  0  0  0  0
   -1.7069    0.8309    0.0000 C   0  0  0  0  0  0  0  0  0  0  0  0
   -0.7070    0.8320    0.0000 C   0  0  0  0  0  0  0  0  0  0  0  0
   -0.2077    1.6985    0.0000 C   0  0  0  0  0  0  0  0  0  0  0  0
    0.7699    1.9080    0.0000 N   0  0  0  0  0  0  0  0  0  0  0  0
    0.8733    2.9024    0.0000 C   0  0  0  0  0  0  0  0  0  0  0  0
    1.7386    3.4034    0.0000 C   0  0  1  0  0  0  0  0  0  0  0  0
    1.9963    4.3694    0.0000 C   0  0  0  0  0  0  0  0  0  0  0  0
    2.9623    4.1124    0.0000 C   0  0  0  0  0  0  0  0  0  0  0  0
    2.7053    3.1459    0.0000 C   0  0  2  0  0  0  0  0  0  0  0  0
    3.2063    2.2805    0.0000 C   0  0  0  0  0  0  0  0  0  0  0  0
    2.7080    1.4141    0.0000 O   0  0  0  0  0  0  0  0  0  0  0  0
    4.2063    2.2814    0.0000 O   0  0  0  0  0  0  0  0  0  0  0  0
    4.7073    1.4156    0.0000 C   0  0  0  0  0  0  0  0  0  0  0  0
    5.7071    1.4174    0.0000 C   0  0  0  0  0  0  0  0  0  0  0  0
    6.2083    0.5514    0.0000 N   0  0  0  0  0  0  0  0  0  0  0  0
   -0.0401    3.3083    0.0000 N   0  0  0  0  0  0  0  0  0  0  0  0
   -0.7086    2.5639    0.0000 C   0  0  0  0  0  0  0  0  0  0  0  0
   -1.7091    2.5632    0.0000 C   0  0  0  0  0  0  0  0  0  0  0  0
   -5.2039   -1.7713    0.0000 C   0  0  0  0  0  0  0  0  0  0  0  0
   -5.7028   -2.6375    0.0000 N   0  0  0  0  0  0  0  0  0  0  0  0
   -5.2019   -3.5031    0.0000 C   0  0  0  0  0  0  0  0  0  0  0  0
   -5.7008   -4.3694    0.0000 C   0  0  0  0  0  0  0  0  0  0  0  0
    7.2076    0.5514    0.0000 H   0  0  0  0  0  0  0  0  0  0  0  0
    5.7078   -0.3140    0.0000 H   0  0  0  0  0  0  0  0  0  0  0  0
  1  2  1  0  0  0  0
  1 39  2  0  0  0  0
  2  3  2  0  0  0  0
  3  4  1  0  0  0  0
  3 37  1  0  0  0  0
  4  5  2  0  0  0  0
  4  6  2  0  0  0  0
  4  7  1  0  0  0  0
  7  8  1  0  0  0  0
  8  9  2  0  0  0  0
  8 17  1  0  0  0  0
  9 10  1  0  0  0  0
 10 11  1  0  0  0  0
 10 15  2  0  0  0  0
 11 12  1  0  0  0  0
 11 13  1  0  0  0  0
 11 14  1  0  0  0  0
 15 16  1  0  0  0  0
 16 17  2  0  0  0  0
 17 18  1  0  0  0  0
 18 19  1  0  0  0  0
 18 36  1  0  0  0  0
 19 20  1  0  0  0  0
 20 21  1  0  0  0  0
 21 22  1  0  0  0  0
 21 35  2  0  0  0  0
 22 23  1  0  0  0  0
 24 23  1  1  0  0  0
 23 34  2  0  0  0  0
 24 25  1  0  0  0  0
 24 27  1  0  0  0  0
 25 26  1  0  0  0  0
 26 27  1  0  0  0  0
 27 28  1  6  0  0  0
 28 29  2  0  0  0  0
 28 30  1  0  0  0  0
 30 31  1  0  0  0  0
 31 32  1  0  0  0  0
 32 33  1  0  0  0  0
 34 35  1  0  0  0  0
 35 36  1  0  0  0  0
 37 38  2  0  0  0  0
 38 39  1  0  0  0  0
 39 40  1  0  0  0  0
 33 41  1  0  0  0  0
 33 42  1  0  0  0  0
M  END
>  <ID> (INSCoV-017)
INSCoV-017

>  <HBA> (INSCoV-017)
6

>  <HBD> (INSCoV-017)
5

>  <MCE-18> (INSCoV-017)
111.49

>  <nRot> (INSCoV-017)
8

>  <TopoPSA> (INSCoV-017)
151.68

>  <chembl_closest> (INSCoV-017)
CHEMBL3694758

>  <chembl_max_sim> (INSCoV-017)
0.76

>  <nSC> (INSCoV-017)
2

>  <nAR> (INSCoV-017)
3

>  <MW> (INSCoV-017)
578.19

$$$$

  -ISIS-  -- StrEd -- 

 40 45  0  0  0  0  0  0  0  0999 V2000
   -1.8083   -2.1952    0.0000 N   0  0  0  0  0  0  0  0  0  0  0  0
   -0.9427   -1.6949    0.0000 C   0  0  0  0  0  0  0  0  0  0  0  0
   -0.0762   -2.1937    0.0000 O   0  0  0  0  0  0  0  0  0  0  0  0
   -0.9442   -0.6946    0.0000 C   0  0  1  0  0  0  0  0  0  0  0  0
   -0.0780   -0.1936    0.0000 C   0  0  0  0  0  0  0  0  0  0  0  0
    0.0254    0.8010    0.0000 C   0  0  0  0  0  0  0  0  0  0  0  0
    1.0031    1.0099    0.0000 C   0  0  0  0  0  0  0  0  0  0  0  0
    1.5026    1.8762    0.0000 C   0  0  0  0  0  0  0  0  0  0  0  0
    1.0016    2.7420    0.0000 O   0  0  0  0  0  0  0  0  0  0  0  0
    2.5029    1.8773    0.0000 C   0  0  0  0  0  0  0  0  0  0  0  0
    3.0032    1.0121    0.0000 C   0  0  0  0  0  0  0  0  0  0  0  0
    2.5040    0.1452    0.0000 C   0  0  0  0  0  0  0  0  0  0  0  0
    3.0054   -0.7200    0.0000 C   0  0  0  0  0  0  0  0  0  0  0  0
    2.5062   -1.5869    0.0000 O   0  0  0  0  0  0  0  0  0  0  0  0
    4.0053   -0.7195    0.0000 N   0  0  0  0  0  0  0  0  0  0  0  0
    4.5060   -1.5847    0.0000 C   0  0  0  0  0  0  0  0  0  0  0  0
    4.0074   -2.4516    0.0000 C   0  0  0  0  0  0  0  0  0  0  0  0
    4.5078   -3.3172    0.0000 C   0  0  0  0  0  0  0  0  0  0  0  0
    5.5076   -3.3161    0.0000 C   0  0  0  0  0  0  0  0  0  0  0  0
    6.0069   -2.4494    0.0000 C   0  0  0  0  0  0  0  0  0  0  0  0
    7.0072   -2.4483    0.0000 O   0  0  0  0  0  0  0  0  0  0  0  0
    5.5059   -1.5843    0.0000 C   0  0  0  0  0  0  0  0  0  0  0  0
    1.5041    0.1441    0.0000 C   0  0  0  0  0  0  0  0  0  0  0  0
    0.8356   -0.5993    0.0000 N   0  0  0  0  0  0  0  0  0  0  0  0
   -1.8105   -0.1951    0.0000 N   0  0  0  0  0  0  0  0  0  0  0  0
   -1.8109    0.8045    0.0000 C   0  0  0  0  0  0  0  0  0  0  0  0
   -2.6778    1.3040    0.0000 C   0  0  0  0  0  0  0  0  0  0  0  0
   -3.5437    0.8030    0.0000 C   0  0  0  0  0  0  0  0  0  0  0  0
   -3.5426   -0.1969    0.0000 C   0  0  0  0  0  0  0  0  0  0  0  0
   -2.6756   -0.6961    0.0000 C   0  0  0  0  0  0  0  0  0  0  0  0
   -3.5272    1.8028    0.0000 N   0  0  0  0  0  0  0  0  0  0  0  0
   -4.3843    2.3176    0.0000 C   0  0  0  0  0  0  0  0  0  0  0  0
   -4.3685    3.3172    0.0000 O   0  0  0  0  0  0  0  0  0  0  0  0
   -5.2587    1.8315    0.0000 C   0  0  0  0  0  0  0  0  0  0  0  0
   -6.1170    2.3456    0.0000 C   0  0  0  0  0  0  0  0  0  0  0  0
   -6.9907    1.8602    0.0000 C   0  0  0  0  0  0  0  0  0  0  0  0
   -7.0072    0.8603    0.0000 C   0  0  0  0  0  0  0  0  0  0  0  0
   -6.1494    0.3462    0.0000 C   0  0  0  0  0  0  0  0  0  0  0  0
   -5.2757    0.8317    0.0000 C   0  0  0  0  0  0  0  0  0  0  0  0
   -4.4178    0.3175    0.0000 O   0  0  0  0  0  0  0  0  0  0  0  0
  1  2  1  0  0  0  0
  2  3  2  0  0  0  0
  2  4  1  0  0  0  0
  4  5  1  0  0  0  0
  4 25  1  6  0  0  0
  5  6  2  0  0  0  0
  5 24  1  0  0  0  0
  6  7  1  0  0  0  0
  7  8  1  0  0  0  0
  7 23  2  0  0  0  0
  8  9  1  0  0  0  0
  8 10  2  0  0  0  0
 10 11  1  0  0  0  0
 11 12  2  0  0  0  0
 12 13  1  0  0  0  0
 12 23  1  0  0  0  0
 13 14  2  0  0  0  0
 13 15  1  0  0  0  0
 15 16  1  0  0  0  0
 16 17  1  0  0  0  0
 16 22  2  0  0  0  0
 17 18  2  0  0  0  0
 18 19  1  0  0  0  0
 19 20  2  0  0  0  0
 20 21  1  0  0  0  0
 20 22  1  0  0  0  0
 23 24  1  0  0  0  0
 25 26  1  0  0  0  0
 25 30  1  0  0  0  0
 26 27  1  0  0  0  0
 27 28  1  0  0  0  0
 28 29  1  0  0  0  0
 28 31  1  0  0  0  0
 28 40  1  0  0  0  0
 29 30  1  0  0  0  0
 31 32  1  0  0  0  0
 32 33  2  0  0  0  0
 32 34  1  0  0  0  0
 34 35  1  0  0  0  0
 34 39  2  0  0  0  0
 35 36  2  0  0  0  0
 36 37  1  0  0  0  0
 37 38  2  0  0  0  0
 38 39  1  0  0  0  0
 39 40  1  0  0  0  0
M  END
>  <ID> (INSCoV-018)
INSCoV-018

>  <HBA> (INSCoV-018)
6

>  <HBD> (INSCoV-018)
8

>  <MCE-18> (INSCoV-018)
150

>  <nRot> (INSCoV-018)
5

>  <TopoPSA> (INSCoV-018)
170.01

>  <chembl_closest> (INSCoV-018)
CHEMBL3447837

>  <chembl_max_sim> (INSCoV-018)
0.81

>  <nSC> (INSCoV-018)
1

>  <nAR> (INSCoV-018)
4

>  <MW> (INSCoV-018)
541.2

$$$$

  -ISIS-  -- StrEd -- 

 34 38  0  0  0  0  0  0  0  0999 V2000
    2.7238   -2.0217    0.0000 C   0  0  0  0  0  0  0  0  0  0  0  0
    2.9318   -1.0438    0.0000 O   0  0  0  0  0  0  0  0  0  0  0  0
    3.8827   -0.7352    0.0000 C   0  0  0  0  0  0  0  0  0  0  0  0
    4.6917   -1.3224    0.0000 C   0  0  0  0  0  0  0  0  0  0  0  0
    5.5008   -0.7352    0.0000 C   0  0  0  0  0  0  0  0  0  0  0  0
    5.1919    0.2163    0.0000 S   0  0  0  0  0  0  0  0  0  0  0  0
    4.1916    0.2163    0.0000 C   0  0  0  0  0  0  0  0  0  0  0  0
    3.6039    1.0254    0.0000 C   0  0  0  0  0  0  0  0  0  0  0  0
    4.0108    1.9387    0.0000 O   0  0  0  0  0  0  0  0  0  0  0  0
    2.6094    0.9209    0.0000 C   0  0  0  0  0  0  0  0  0  0  0  0
    2.0215    1.7300    0.0000 C   0  0  0  0  0  0  0  0  0  0  0  0
    1.0273    1.6251    0.0000 N   0  0  0  0  0  0  0  0  0  0  0  0
    0.4394    2.4339    0.0000 C   0  0  0  0  0  0  0  0  0  0  0  0
   -0.5551    2.3299    0.0000 C   0  0  0  0  0  0  0  0  0  0  0  0
   -0.9621    1.4156    0.0000 C   0  0  1  0  0  0  0  0  0  0  0  0
   -1.9131    1.1070    0.0000 C   0  0  0  0  0  0  0  0  0  0  0  0
   -1.9131    0.1073    0.0000 C   0  0  0  0  0  0  0  0  0  0  0  0
   -2.5010   -0.7019    0.0000 C   0  0  0  0  0  0  0  0  0  0  0  0
   -3.5007   -0.7019    0.0000 C   0  0  0  0  0  0  0  0  0  0  0  0
   -4.0008    0.1642    0.0000 C   0  0  0  0  0  0  0  0  0  0  0  0
   -5.0007    0.1642    0.0000 C   0  0  0  0  0  0  0  0  0  0  0  0
   -5.5008    1.0299    0.0000 F   0  0  0  0  0  0  0  0  0  0  0  0
   -5.5008   -0.7019    0.0000 C   0  0  0  0  0  0  0  0  0  0  0  0
   -5.0007   -1.5681    0.0000 C   0  0  0  0  0  0  0  0  0  0  0  0
   -5.5008   -2.4339    0.0000 O   0  0  0  0  0  0  0  0  0  0  0  0
   -4.0008   -1.5681    0.0000 C   0  0  0  0  0  0  0  0  0  0  0  0
   -1.9131   -1.5108    0.0000 N   0  0  0  0  0  0  0  0  0  0  0  0
   -0.9621   -1.2019    0.0000 N   0  0  0  0  0  0  0  0  0  0  0  0
   -0.9621   -0.2016    0.0000 C   0  0  0  0  0  0  0  0  0  0  0  0
   -0.3742    0.6070    0.0000 C   0  0  2  0  0  0  0  0  0  0  0  0
    0.6206    0.7118    0.0000 C   0  0  0  0  0  0  0  0  0  0  0  0
    1.2085   -0.0973    0.0000 O   0  0  0  0  0  0  0  0  0  0  0  0
   -1.4625    2.2823    0.0000 H   0  0  0  0  0  0  0  0  0  0  0  0
    0.1255   -0.2589    0.0000 H   0  0  0  0  0  0  0  0  0  0  0  0
  1  2  1  0  0  0  0
  2  3  1  0  0  0  0
  3  4  1  0  0  0  0
  3  7  2  0  0  0  0
  4  5  2  0  0  0  0
  5  6  1  0  0  0  0
  6  7  1  0  0  0  0
  7  8  1  0  0  0  0
  8  9  2  0  0  0  0
  8 10  1  0  0  0  0
 10 11  1  0  0  0  0
 11 12  1  0  0  0  0
 12 13  1  0  0  0  0
 12 31  1  0  0  0  0
 13 14  1  0  0  0  0
 14 15  1  0  0  0  0
 15 16  1  0  0  0  0
 15 30  1  0  0  0  0
 16 17  1  0  0  0  0
 17 18  1  0  0  0  0
 17 29  2  0  0  0  0
 18 19  1  0  0  0  0
 18 27  2  0  0  0  0
 19 20  1  0  0  0  0
 19 26  2  0  0  0  0
 20 21  2  0  0  0  0
 21 22  1  0  0  0  0
 21 23  1  0  0  0  0
 23 24  2  0  0  0  0
 24 25  1  0  0  0  0
 24 26  1  0  0  0  0
 27 28  1  0  0  0  0
 28 29  1  0  0  0  0
 29 30  1  0  0  0  0
 30 31  1  0  0  0  0
 31 32  2  0  0  0  0
 15 33  1  1  0  0  0
 30 34  1  6  0  0  0
M  END
>  <ID> (INSCoV-019)
INSCoV-019

>  <HBA> (INSCoV-019)
5

>  <HBD> (INSCoV-019)
2

>  <MCE-18> (INSCoV-019)
93.03

>  <nRot> (INSCoV-019)
6

>  <TopoPSA> (INSCoV-019)
123.76

>  <chembl_closest> (INSCoV-019)
CHEMBL3684642

>  <chembl_max_sim> (INSCoV-019)
0.7

>  <nSC> (INSCoV-019)
2

>  <nAR> (INSCoV-019)
3

>  <MW> (INSCoV-019)
455.13

$$$$

  -ISIS-  -- StrEd -- 

 39 43  0  0  0  0  0  0  0  0999 V2000
    1.9819   -0.3175    0.0000 C   0  0  0  0  0  0  0  0  0  0  0  0
    2.9817   -0.3175    0.0000 C   0  0  0  0  0  0  0  0  0  0  0  0
    3.4820   -1.1833    0.0000 C   0  0  0  0  0  0  0  0  0  0  0  0
    3.4820    0.5485    0.0000 C   0  0  0  0  0  0  0  0  0  0  0  0
    4.4820    0.5485    0.0000 O   0  0  0  0  0  0  0  0  0  0  0  0
    2.9817    1.4145    0.0000 N   0  0  0  0  0  0  0  0  0  0  0  0
    1.9819    1.4145    0.0000 C   0  0  0  0  0  0  0  0  0  0  0  0
    1.4821    2.2812    0.0000 C   0  0  0  0  0  0  0  0  0  0  0  0
    0.4822    2.2812    0.0000 C   0  0  0  0  0  0  0  0  0  0  0  0
   -0.0179    1.4145    0.0000 N   0  0  0  0  0  0  0  0  0  0  0  0
   -1.0183    1.4145    0.0000 C   0  0  2  0  0  0  0  0  0  0  0  0
   -1.0183    2.4150    0.0000 C   0  0  0  0  0  0  0  0  0  0  0  0
   -1.8838    2.9146    0.0000 C   0  0  0  0  0  0  0  0  0  0  0  0
   -2.7499    2.4150    0.0000 C   0  0  0  0  0  0  0  0  0  0  0  0
   -3.6160    2.9146    0.0000 C   0  0  0  0  0  0  0  0  0  0  0  0
   -4.4820    2.4150    0.0000 F   0  0  0  0  0  0  0  0  0  0  0  0
   -3.6160    3.9146    0.0000 C   0  0  0  0  0  0  0  0  0  0  0  0
   -2.7499    4.4151    0.0000 C   0  0  0  0  0  0  0  0  0  0  0  0
   -1.8838    3.9146    0.0000 C   0  0  0  0  0  0  0  0  0  0  0  0
   -1.0183    4.4151    0.0000 O   0  0  0  0  0  0  0  0  0  0  0  0
   -2.0179    1.4145    0.0000 C   0  0  0  0  0  0  0  0  0  0  0  0
   -2.0179    0.4151    0.0000 C   0  0  0  0  0  0  0  0  0  0  0  0
   -1.0183    0.4151    0.0000 C   0  0  1  0  0  0  0  0  0  0  0  0
   -0.3107   -0.2927    0.0000 C   0  0  0  0  0  0  0  0  0  0  0  0
   -0.5696   -1.2587    0.0000 C   0  0  1  0  0  0  0  0  0  0  0  0
   -1.5359   -1.5172    0.0000 N   0  0  0  0  0  0  0  0  0  0  0  0
   -1.7941   -2.4833    0.0000 C   0  0  0  0  0  0  0  0  0  0  0  0
   -2.7605   -2.7422    0.0000 C   0  0  0  0  0  0  0  0  0  0  0  0
   -3.0193   -3.7075    0.0000 C   0  0  0  0  0  0  0  0  0  0  0  0
   -2.3122   -4.4151    0.0000 C   0  0  0  0  0  0  0  0  0  0  0  0
   -1.3461   -4.1565    0.0000 C   0  0  0  0  0  0  0  0  0  0  0  0
   -1.0873   -3.1898    0.0000 C   0  0  0  0  0  0  0  0  0  0  0  0
   -0.1213   -2.9310    0.0000 S   0  0  0  0  0  0  0  0  0  0  0  0
    0.1375   -3.8972    0.0000 O   0  0  0  0  0  0  0  0  0  0  0  0
    0.8444   -3.1898    0.0000 O   0  0  0  0  0  0  0  0  0  0  0  0
    0.1375   -1.9652    0.0000 N   0  0  0  0  0  0  0  0  0  0  0  0
    0.4822    0.5485    0.0000 C   0  0  0  0  0  0  0  0  0  0  0  0
    1.4821    0.5485    0.0000 C   0  0  0  0  0  0  0  0  0  0  0  0
    1.1033   -1.7064    0.0000 C   0  0  0  0  0  0  0  0  0  0  0  0
  1  2  1  0  0  0  0
  2  3  1  0  0  0  0
  2  4  1  0  0  0  0
  4  5  2  0  0  0  0
  4  6  1  0  0  0  0
  6  7  1  0  0  0  0
  7  8  1  0  0  0  0
  7 38  1  0  0  0  0
  8  9  1  0  0  0  0
  9 10  1  0  0  0  0
 11 10  1  1  0  0  0
 10 37  1  0  0  0  0
 11 12  1  6  0  0  0
 11 21  1  0  0  0  0
 11 23  1  0  0  0  0
 12 13  1  0  0  0  0
 13 14  2  0  0  0  0
 13 19  1  0  0  0  0
 14 15  1  0  0  0  0
 15 16  1  0  0  0  0
 15 17  2  0  0  0  0
 17 18  1  0  0  0  0
 18 19  2  0  0  0  0
 19 20  1  0  0  0  0
 21 22  1  0  0  0  0
 22 23  1  0  0  0  0
 23 24  1  6  0  0  0
 25 24  1  6  0  0  0
 25 26  1  0  0  0  0
 25 36  1  0  0  0  0
 26 27  1  0  0  0  0
 27 28  1  0  0  0  0
 27 32  2  0  0  0  0
 28 29  2  0  0  0  0
 29 30  1  0  0  0  0
 30 31  2  0  0  0  0
 31 32  1  0  0  0  0
 32 33  1  0  0  0  0
 33 34  2  0  0  0  0
 33 35  2  0  0  0  0
 33 36  1  0  0  0  0
 36 39  1  0  0  0  0
 37 38  1  0  0  0  0
M  END
>  <ID> (INSCoV-020)
INSCoV-020

>  <HBA> (INSCoV-020)
4

>  <HBD> (INSCoV-020)
4

>  <MCE-18> (INSCoV-020)
113.67

>  <nRot> (INSCoV-020)
7

>  <TopoPSA> (INSCoV-020)
110.36

>  <chembl_closest> (INSCoV-020)
CHEMBL3448107

>  <chembl_max_sim> (INSCoV-020)
0.82

>  <nSC> (INSCoV-020)
3

>  <nAR> (INSCoV-020)
2

>  <MW> (INSCoV-020)
558.27

$$$$

  -ISIS-  -- StrEd -- 

 38 42  0  0  0  0  0  0  0  0999 V2000
   -5.8123   -0.5001    0.0000 C   0  0  0  0  0  0  0  0  0  0  0  0
   -5.8123   -1.5007    0.0000 C   0  0  0  0  0  0  0  0  0  0  0  0
   -4.9461   -2.0010    0.0000 C   0  0  0  0  0  0  0  0  0  0  0  0
   -4.0792   -1.5007    0.0000 C   0  0  0  0  0  0  0  0  0  0  0  0
   -4.0792   -0.5001    0.0000 C   0  0  0  0  0  0  0  0  0  0  0  0
   -4.9461    0.0002    0.0000 C   0  0  0  0  0  0  0  0  0  0  0  0
   -6.6791    0.0002    0.0000 C   0  0  0  0  0  0  0  0  0  0  0  0
   -4.9461   -3.0020    0.0000 O   0  0  0  0  0  0  0  0  0  0  0  0
   -3.2124    0.0002    0.0000 C   0  0  1  0  0  0  0  0  0  0  0  0
   -2.3462   -0.5001    0.0000 C   0  0  0  0  0  0  0  0  0  0  0  0
   -1.4794    0.0002    0.0000 N   0  0  0  0  0  0  0  0  0  0  0  0
   -0.6126   -0.5001    0.0000 C   0  0  0  0  0  0  0  0  0  0  0  0
    0.2536    0.0002    0.0000 C   0  0  1  0  0  0  0  0  0  0  0  0
    0.2536    1.0008    0.0000 C   0  0  0  0  0  0  0  0  0  0  0  0
   -0.6126    1.5011    0.0000 C   0  0  0  0  0  0  0  0  0  0  0  0
   -1.4794    1.0008    0.0000 C   0  0  0  0  0  0  0  0  0  0  0  0
    1.1204    1.5011    0.0000 C   0  0  0  0  0  0  0  0  0  0  0  0
    1.1204    2.5017    0.0000 C   0  0  0  0  0  0  0  0  0  0  0  0
    0.2536    3.0020    0.0000 C   0  0  0  0  0  0  0  0  0  0  0  0
   -0.6126    2.5017    0.0000 C   0  0  0  0  0  0  0  0  0  0  0  0
    0.2536   -1.0004    0.0000 C   0  0  0  0  0  0  0  0  0  0  0  0
    1.1204   -1.5007    0.0000 N   0  0  0  0  0  0  0  0  0  0  0  0
    1.9872   -1.0004    0.0000 C   0  0  0  0  0  0  0  0  0  0  0  0
    1.9872    0.0002    0.0000 C   0  0  0  0  0  0  0  0  0  0  0  0
    1.1204    0.5005    0.0000 C   0  0  0  0  0  0  0  0  0  0  0  0
    2.8536   -1.5007    0.0000 C   0  0  0  0  0  0  0  0  0  0  0  0
    3.7205   -1.0004    0.0000 C   0  0  0  0  0  0  0  0  0  0  0  0
    3.7205    0.0002    0.0000 C   0  0  0  0  0  0  0  0  0  0  0  0
    2.8536    0.5005    0.0000 C   0  0  0  0  0  0  0  0  0  0  0  0
    4.5866   -1.5007    0.0000 N   0  0  0  0  0  0  0  0  0  0  0  0
    5.4535   -1.0004    0.0000 S   0  0  0  0  0  0  0  0  0  0  0  0
    5.0281   -0.1248    0.0000 O   0  0  0  0  0  0  0  0  0  0  0  0
    5.9538   -1.8672    0.0000 O   0  0  0  0  0  0  0  0  0  0  0  0
    6.4201   -0.7414    0.0000 C   0  0  0  0  0  0  0  0  0  0  0  0
    6.6791    0.2248    0.0000 C   0  0  0  0  0  0  0  0  0  0  0  0
   -2.3462    1.5011    0.0000 O   0  0  0  0  0  0  0  0  0  0  0  0
   -3.2124    1.0008    0.0000 O   0  0  0  0  0  0  0  0  0  0  0  0
   -0.6126   -1.5007    0.0000 O   0  0  0  0  0  0  0  0  0  0  0  0
  1  2  2  0  0  0  0
  2  3  1  0  0  0  0
  3  4  2  0  0  0  0
  4  5  1  0  0  0  0
  5  6  2  0  0  0  0
  6  1  1  0  0  0  0
  1  7  1  0  0  0  0
  3  8  1  0  0  0  0
  5  9  1  0  0  0  0
  9 10  1  0  0  0  0
 10 11  1  0  0  0  0
 11 12  1  0  0  0  0
 12 13  1  0  0  0  0
 13 14  1  0  0  0  0
 14 15  2  0  0  0  0
 15 16  1  0  0  0  0
 16 11  1  0  0  0  0
 14 17  1  0  0  0  0
 17 18  2  0  0  0  0
 18 19  1  0  0  0  0
 19 20  2  0  0  0  0
 20 15  1  0  0  0  0
 13 21  1  1  0  0  0
 21 22  1  0  0  0  0
 22 23  1  0  0  0  0
 23 24  2  0  0  0  0
 24 25  1  0  0  0  0
 13 25  1  6  0  0  0
 23 26  1  0  0  0  0
 26 27  2  0  0  0  0
 27 28  1  0  0  0  0
 28 29  2  0  0  0  0
 29 24  1  0  0  0  0
 27 30  1  0  0  0  0
 30 31  1  0  0  0  0
 31 32  2  0  0  0  0
 31 33  2  0  0  0  0
 31 34  1  0  0  0  0
 34 35  1  0  0  0  0
 16 36  2  0  0  0  0
  9 37  1  6  0  0  0
 21 38  2  0  0  0  0
M  END
>  <ID> (INSCoV-021)
INSCoV-021

>  <HBA> (INSCoV-021)
6

>  <HBD> (INSCoV-021)
4

>  <MCE-18> (INSCoV-021)
137.5

>  <nRot> (INSCoV-021)
6

>  <TopoPSA> (INSCoV-021)
144.42

>  <chembl_closest> (INSCoV-021)
CHEMBL4086760

>  <chembl_max_sim> (INSCoV-021)
0.77

>  <nSC> (INSCoV-021)
2

>  <nAR> (INSCoV-021)
3

>  <MW> (INSCoV-021)
535.18

$$$$

  -ISIS-  -- StrEd -- 

 35 38  0  0  0  0  0  0  0  0999 V2000
    5.5762   -0.6393    0.0000 C   0  0  0  0  0  0  0  0  0  0  0  0
    6.5762   -0.6615    0.0000 N   0  0  0  0  0  0  0  0  0  0  0  0
    6.9055    0.2831    0.0000 C   0  0  0  0  0  0  0  0  0  0  0  0
    6.1096    0.8883    0.0000 S   0  0  0  0  0  0  0  0  0  0  0  0
    5.2872    0.3184    0.0000 C   0  0  0  0  0  0  0  0  0  0  0  0
    4.3432    0.6482    0.0000 C   0  0  0  0  0  0  0  0  0  0  0  0
    4.1577    1.6298    0.0000 O   0  0  0  0  0  0  0  0  0  0  0  0
    3.5859   -0.0052    0.0000 C   0  0  0  0  0  0  0  0  0  0  0  0
    2.6421    0.3248    0.0000 C   0  0  0  0  0  0  0  0  0  0  0  0
    1.8846   -0.3280    0.0000 C   0  0  0  0  0  0  0  0  0  0  0  0
    0.9408    0.0015    0.0000 N   0  0  0  0  0  0  0  0  0  0  0  0
    0.1828   -0.6506    0.0000 C   0  0  0  0  0  0  0  0  0  0  0  0
    0.3698   -1.6335    0.0000 O   0  0  0  0  0  0  0  0  0  0  0  0
   -0.7612   -0.3214    0.0000 N   0  0  0  0  0  0  0  0  0  0  0  0
   -0.9480    0.6615    0.0000 C   0  0  0  0  0  0  0  0  0  0  0  0
   -0.1902    1.3138    0.0000 O   0  0  0  0  0  0  0  0  0  0  0  0
   -1.8920    0.9910    0.0000 C   0  0  0  0  0  0  0  0  0  0  0  0
   -2.2780    1.9134    0.0000 N   0  0  0  0  0  0  0  0  0  0  0  0
   -3.2751    1.8303    0.0000 N   0  0  0  0  0  0  0  0  0  0  0  0
   -3.5036    0.8573    0.0000 C   0  0  0  0  0  0  0  0  0  0  0  0
   -4.4263    0.4698    0.0000 C   0  0  0  0  0  0  0  0  0  0  0  0
   -4.5528   -0.5212    0.0000 C   0  0  0  0  0  0  0  0  0  0  0  0
   -5.4747   -0.9079    0.0000 C   0  0  0  0  0  0  0  0  0  0  0  0
   -5.6005   -1.9003    0.0000 F   0  0  0  0  0  0  0  0  0  0  0  0
   -6.2706   -0.3027    0.0000 C   0  0  0  0  0  0  0  0  0  0  0  0
   -6.1443    0.6890    0.0000 C   0  0  0  0  0  0  0  0  0  0  0  0
   -6.9404    1.2947    0.0000 O   0  0  0  0  0  0  0  0  0  0  0  0
   -5.2224    1.0757    0.0000 C   0  0  0  0  0  0  0  0  0  0  0  0
   -2.6490    0.3381    0.0000 C   0  0  0  0  0  0  0  0  0  0  0  0
   -2.4630   -0.6443    0.0000 C   0  0  0  0  0  0  0  0  0  0  0  0
   -1.5190   -0.9735    0.0000 C   0  0  0  0  0  0  0  0  0  0  0  0
   -0.8824   -1.7458    0.0000 C   0  0  0  0  0  0  0  0  0  0  0  0
   -1.8610   -1.9134    0.0000 C   0  0  0  0  0  0  0  0  0  0  0  0
    7.8628    0.5708    0.0000 C   0  0  0  0  0  0  0  0  0  0  0  0
   -7.8628    0.9079    0.0000 C   0  0  0  0  0  0  0  0  0  0  0  0
  1  2  1  0  0  0  0
  1  5  2  0  0  0  0
  2  3  2  0  0  0  0
  3  4  1  0  0  0  0
  3 34  1  0  0  0  0
  4  5  1  0  0  0  0
  5  6  1  0  0  0  0
  6  7  2  0  0  0  0
  6  8  1  0  0  0  0
  8  9  1  0  0  0  0
  9 10  1  0  0  0  0
 10 11  1  0  0  0  0
 11 12  1  0  0  0  0
 12 13  2  0  0  0  0
 12 14  1  0  0  0  0
 14 15  1  0  0  0  0
 14 31  1  0  0  0  0
 15 16  2  0  0  0  0
 15 17  1  0  0  0  0
 17 18  1  0  0  0  0
 17 29  2  0  0  0  0
 18 19  1  0  0  0  0
 19 20  2  0  0  0  0
 20 21  1  0  0  0  0
 20 29  1  0  0  0  0
 21 22  1  0  0  0  0
 21 28  2  0  0  0  0
 22 23  2  0  0  0  0
 23 24  1  0  0  0  0
 23 25  1  0  0  0  0
 25 26  2  0  0  0  0
 26 27  1  0  0  0  0
 26 28  1  0  0  0  0
 27 35  1  0  0  0  0
 29 30  1  0  0  0  0
 30 31  1  0  0  0  0
 31 32  1  0  0  0  0
 31 33  1  0  0  0  0
M  END
>  <ID> (INSCoV-022)
INSCoV-022

>  <HBA> (INSCoV-022)
6

>  <HBD> (INSCoV-022)
2

>  <MCE-18> (INSCoV-022)
57.27

>  <nRot> (INSCoV-022)
7

>  <TopoPSA> (INSCoV-022)
145.52

>  <chembl_closest> (INSCoV-022)
CHEMBL3658627

>  <chembl_max_sim> (INSCoV-022)
0.76

>  <nSC> (INSCoV-022)
0

>  <nAR> (INSCoV-022)
3

>  <MW> (INSCoV-022)
499.17

$$$$

  -ISIS-  -- StrEd -- 

 33 37  0  0  0  0  0  0  0  0999 V2000
   -2.0782   -2.4864    0.0000 N   0  0  0  0  0  0  0  0  0  0  0  0
   -1.2167   -1.9788    0.0000 C   0  0  0  0  0  0  0  0  0  0  0  0
   -0.3462   -2.4707    0.0000 O   0  0  0  0  0  0  0  0  0  0  0  0
   -1.2261   -0.9787    0.0000 C   0  0  0  0  0  0  0  0  0  0  0  0
   -0.4228   -0.3833    0.0000 C   0  0  0  0  0  0  0  0  0  0  0  0
    0.5773   -0.3733    0.0000 O   0  0  0  0  0  0  0  0  0  0  0  0
    0.8770    0.5801    0.0000 C   0  0  1  0  0  0  0  0  0  0  0  0
    1.8253    0.8980    0.0000 C   0  0  0  0  0  0  0  0  0  0  0  0
    2.5750    0.2358    0.0000 C   0  0  0  0  0  0  0  0  0  0  0  0
    3.5227    0.5540    0.0000 C   0  0  0  0  0  0  0  0  0  0  0  0
    0.0626    1.1602    0.0000 C   0  0  0  0  0  0  0  0  0  0  0  0
    0.0532    2.1603    0.0000 O   0  0  0  0  0  0  0  0  0  0  0  0
   -0.7407    0.5648    0.0000 N   0  0  0  0  0  0  0  0  0  0  0  0
   -1.7408    0.5555    0.0000 C   0  0  0  0  0  0  0  0  0  0  0  0
   -2.0405   -0.3986    0.0000 N   0  0  0  0  0  0  0  0  0  0  0  0
   -2.9886   -0.7162    0.0000 C   0  0  0  0  0  0  0  0  0  0  0  0
   -3.1875   -1.6966    0.0000 O   0  0  0  0  0  0  0  0  0  0  0  0
   -3.7385   -0.0542    0.0000 C   0  0  0  0  0  0  0  0  0  0  0  0
   -4.7143   -0.2708    0.0000 C   0  0  0  0  0  0  0  0  0  0  0  0
   -5.2225    0.5897    0.0000 C   0  0  0  0  0  0  0  0  0  0  0  0
   -6.2028    0.7886    0.0000 C   0  0  0  0  0  0  0  0  0  0  0  0
   -6.5205    1.7367    0.0000 C   0  0  0  0  0  0  0  0  0  0  0  0
   -5.8585    2.4864    0.0000 C   0  0  0  0  0  0  0  0  0  0  0  0
   -4.8782    2.2875    0.0000 C   0  0  0  0  0  0  0  0  0  0  0  0
   -4.5605    1.3394    0.0000 C   0  0  0  0  0  0  0  0  0  0  0  0
   -3.6429    0.9416    0.0000 S   0  0  0  0  0  0  0  0  0  0  0  0
    5.7713   -1.4325    0.0000 C   0  0  0  0  0  0  0  0  0  0  0  0
    6.5205   -2.0945    0.0000 F   0  0  0  0  0  0  0  0  0  0  0  0
    5.9697   -0.4522    0.0000 C   0  0  0  0  0  0  0  0  0  0  0  0
    5.2205    0.2101    0.0000 C   0  0  0  0  0  0  0  0  0  0  0  0
    4.2724   -0.1082    0.0000 C   0  0  0  0  0  0  0  0  0  0  0  0
    4.0739   -1.0879    0.0000 C   0  0  0  0  0  0  0  0  0  0  0  0
    4.8231   -1.7501    0.0000 C   0  0  0  0  0  0  0  0  0  0  0  0
  1  2  1  0  0  0  0
  2  3  2  0  0  0  0
  2  4  1  0  0  0  0
  4  5  2  0  0  0  0
  4 15  1  0  0  0  0
  5  6  1  0  0  0  0
  5 13  1  0  0  0  0
  6  7  1  0  0  0  0
  7  8  1  6  0  0  0
  7 11  1  0  0  0  0
  8  9  1  0  0  0  0
  9 10  1  0  0  0  0
 10 31  1  0  0  0  0
 11 12  2  0  0  0  0
 11 13  1  0  0  0  0
 13 14  1  0  0  0  0
 14 15  1  0  0  0  0
 15 16  1  0  0  0  0
 16 17  2  0  0  0  0
 16 18  1  0  0  0  0
 18 19  2  0  0  0  0
 18 26  1  0  0  0  0
 19 20  1  0  0  0  0
 20 21  1  0  0  0  0
 20 25  2  0  0  0  0
 21 22  2  0  0  0  0
 22 23  1  0  0  0  0
 23 24  2  0  0  0  0
 24 25  1  0  0  0  0
 25 26  1  0  0  0  0
 27 28  1  0  0  0  0
 27 29  1  0  0  0  0
 27 33  2  0  0  0  0
 29 30  2  0  0  0  0
 30 31  1  0  0  0  0
 31 32  2  0  0  0  0
 32 33  1  0  0  0  0
M  END
>  <ID> (INSCoV-023)
INSCoV-023

>  <HBA> (INSCoV-023)
4

>  <HBD> (INSCoV-023)
2

>  <MCE-18> (INSCoV-023)
87.86

>  <nRot> (INSCoV-023)
6

>  <TopoPSA> (INSCoV-023)
121.18

>  <chembl_closest> (INSCoV-023)
CHEMBL2079332

>  <chembl_max_sim> (INSCoV-023)
0.73

>  <nSC> (INSCoV-023)
1

>  <nAR> (INSCoV-023)
3

>  <MW> (INSCoV-023)
465.12

$$$$

  -ISIS-  -- StrEd -- 

 36 40  0  0  0  0  0  0  0  0999 V2000
    4.7294   -2.2753    0.0000 C   0  0  0  0  0  0  0  0  0  0  0  0
    3.7291   -2.2753    0.0000 C   0  0  0  0  0  0  0  0  0  0  0  0
    3.1418   -3.0843    0.0000 N   0  0  0  0  0  0  0  0  0  0  0  0
    2.1906   -2.7755    0.0000 C   0  0  0  0  0  0  0  0  0  0  0  0
    2.1906   -1.7755    0.0000 C   0  0  0  0  0  0  0  0  0  0  0  0
    3.1418   -1.4663    0.0000 N   0  0  0  0  0  0  0  0  0  0  0  0
    3.4505   -0.5153    0.0000 C   0  0  0  0  0  0  0  0  0  0  0  0
    2.7814    0.2280    0.0000 C   0  0  0  0  0  0  0  0  0  0  0  0
    3.0906    1.1789    0.0000 C   0  0  0  0  0  0  0  0  0  0  0  0
    4.0686    1.3868    0.0000 C   0  0  0  0  0  0  0  0  0  0  0  0
    4.3775    2.3378    0.0000 N   0  0  0  0  0  0  0  0  0  0  0  0
    3.7087    3.0810    0.0000 C   0  0  0  0  0  0  0  0  0  0  0  0
    2.7303    2.8733    0.0000 O   0  0  0  0  0  0  0  0  0  0  0  0
    4.0176    4.0319    0.0000 C   0  0  0  0  0  0  0  0  0  0  0  0
    4.7378    0.6436    0.0000 C   0  0  0  0  0  0  0  0  0  0  0  0
    4.4287   -0.3074    0.0000 C   0  0  0  0  0  0  0  0  0  0  0  0
    1.3244   -1.2753    0.0000 C   0  0  0  0  0  0  0  0  0  0  0  0
    1.3244   -0.2753    0.0000 O   0  0  0  0  0  0  0  0  0  0  0  0
    0.4586   -1.7755    0.0000 N   0  0  0  0  0  0  0  0  0  0  0  0
    0.4586   -2.7755    0.0000 C   0  0  1  0  0  0  0  0  0  0  0  0
   -0.4075   -3.2753    0.0000 C   0  0  0  0  0  0  0  0  0  0  0  0
   -0.4075   -4.2756    0.0000 C   0  0  0  0  0  0  0  0  0  0  0  0
   -1.2738   -4.7754    0.0000 O   0  0  0  0  0  0  0  0  0  0  0  0
   -2.1395   -4.2756    0.0000 C   0  0  0  0  0  0  0  0  0  0  0  0
   -2.1395   -3.2753    0.0000 C   0  0  1  0  0  0  0  0  0  0  0  0
   -3.0058   -2.7755    0.0000 C   0  0  0  0  0  0  0  0  0  0  0  0
   -3.8716   -3.2753    0.0000 C   0  0  0  0  0  0  0  0  0  0  0  0
   -4.7378   -2.7755    0.0000 C   0  0  0  0  0  0  0  0  0  0  0  0
   -4.7378   -1.7755    0.0000 C   0  0  0  0  0  0  0  0  0  0  0  0
   -3.8716   -1.2753    0.0000 C   0  0  0  0  0  0  0  0  0  0  0  0
   -3.8716   -0.2753    0.0000 F   0  0  0  0  0  0  0  0  0  0  0  0
   -3.0058   -1.7755    0.0000 C   0  0  0  0  0  0  0  0  0  0  0  0
   -1.2738   -2.7755    0.0000 C   0  0  0  0  0  0  0  0  0  0  0  0
    1.3244   -3.2753    0.0000 N   0  0  0  0  0  0  0  0  0  0  0  0
    1.3244   -4.2756    0.0000 C   0  0  0  0  0  0  0  0  0  0  0  0
    3.3484    4.7754    0.0000 C   0  0  0  0  0  0  0  0  0  0  0  0
  1  2  1  0  0  0  0
  2  3  2  0  0  0  0
  2  6  1  0  0  0  0
  3  4  1  0  0  0  0
  4  5  2  0  0  0  0
  4 34  1  0  0  0  0
  5  6  1  0  0  0  0
  5 17  1  0  0  0  0
  6  7  1  0  0  0  0
  7  8  1  0  0  0  0
  7 16  2  0  0  0  0
  8  9  2  0  0  0  0
  9 10  1  0  0  0  0
 10 11  1  0  0  0  0
 10 15  2  0  0  0  0
 11 12  1  0  0  0  0
 12 13  2  0  0  0  0
 12 14  1  0  0  0  0
 15 16  1  0  0  0  0
 17 18  2  0  0  0  0
 17 19  1  0  0  0  0
 19 20  1  0  0  0  0
 20 21  1  6  0  0  0
 20 34  1  0  0  0  0
 21 22  2  0  0  0  0
 21 33  1  0  0  0  0
 22 23  1  0  0  0  0
 23 24  1  0  0  0  0
 24 25  1  0  0  0  0
 25 26  1  1  0  0  0
 25 33  1  0  0  0  0
 26 27  1  0  0  0  0
 26 32  2  0  0  0  0
 27 28  2  0  0  0  0
 28 29  1  0  0  0  0
 29 30  2  0  0  0  0
 30 31  1  0  0  0  0
 30 32  1  0  0  0  0
 34 35  1  0  0  0  0
 14 36  1  0  0  0  0
M  END
>  <ID> (INSCoV-024)
INSCoV-024

>  <HBA> (INSCoV-024)
4

>  <HBD> (INSCoV-024)
2

>  <MCE-18> (INSCoV-024)
93.63

>  <nRot> (INSCoV-024)
5

>  <TopoPSA> (INSCoV-024)
88.49

>  <chembl_closest> (INSCoV-024)
CHEMBL1720304

>  <chembl_max_sim> (INSCoV-024)
0.82

>  <nSC> (INSCoV-024)
2

>  <nAR> (INSCoV-024)
3

>  <MW> (INSCoV-024)
489.22

$$$$

  -ISIS-  -- StrEd -- 

 34 37  0  0  0  0  0  0  0  0999 V2000
   -4.1057   -2.2757    0.0000 C   0  0  0  0  0  0  0  0  0  0  0  0
   -3.2969   -1.6879    0.0000 C   0  0  0  0  0  0  0  0  0  0  0  0
   -2.3457   -1.9970    0.0000 N   0  0  0  0  0  0  0  0  0  0  0  0
   -1.7579   -1.1880    0.0000 C   0  0  0  0  0  0  0  0  0  0  0  0
   -0.7580   -1.1880    0.0000 C   0  0  0  0  0  0  0  0  0  0  0  0
   -0.2577   -2.0543    0.0000 C   0  0  0  0  0  0  0  0  0  0  0  0
    0.7420   -2.0543    0.0000 C   0  0  0  0  0  0  0  0  0  0  0  0
    1.2419   -1.1880    0.0000 C   0  0  0  0  0  0  0  0  0  0  0  0
    2.2418   -1.1880    0.0000 C   0  0  0  0  0  0  0  0  0  0  0  0
    2.7418   -0.3217    0.0000 N   0  0  0  0  0  0  0  0  0  0  0  0
    3.7418   -0.3217    0.0000 S   0  0  0  0  0  0  0  0  0  0  0  0
    3.7418    0.6780    0.0000 O   0  0  0  0  0  0  0  0  0  0  0  0
    3.7418   -1.3220    0.0000 O   0  0  0  0  0  0  0  0  0  0  0  0
    4.7417   -0.3217    0.0000 C   0  0  2  0  0  0  0  0  0  0  0  0
    5.2417   -1.1880    0.0000 C   0  0  0  0  0  0  0  0  0  0  0  0
    6.2420   -1.1880    0.0000 O   0  0  0  0  0  0  0  0  0  0  0  0
    5.2417    0.5440    0.0000 C   0  0  0  0  0  0  0  0  0  0  0  0
    6.2420    0.5440    0.0000 C   0  0  0  0  0  0  0  0  0  0  0  0
    6.7417    1.4101    0.0000 C   0  0  0  0  0  0  0  0  0  0  0  0
    6.2420    2.2757    0.0000 C   0  0  0  0  0  0  0  0  0  0  0  0
    5.2417    2.2757    0.0000 N   0  0  0  0  0  0  0  0  0  0  0  0
    4.7417    1.4101    0.0000 C   0  0  0  0  0  0  0  0  0  0  0  0
    0.7420   -0.3217    0.0000 C   0  0  0  0  0  0  0  0  0  0  0  0
   -0.2577   -0.3217    0.0000 C   0  0  0  0  0  0  0  0  0  0  0  0
   -2.3457   -0.3790    0.0000 N   0  0  0  0  0  0  0  0  0  0  0  0
   -3.2969   -0.6883    0.0000 C   0  0  0  0  0  0  0  0  0  0  0  0
   -4.1057   -0.1003    0.0000 C   0  0  0  0  0  0  0  0  0  0  0  0
   -4.0014    0.8943    0.0000 C   0  0  0  0  0  0  0  0  0  0  0  0
   -4.8102    1.4821    0.0000 C   0  0  0  0  0  0  0  0  0  0  0  0
   -5.7237    1.0751    0.0000 C   0  0  0  0  0  0  0  0  0  0  0  0
   -5.8280    0.0809    0.0000 C   0  0  0  0  0  0  0  0  0  0  0  0
   -6.7417   -0.3259    0.0000 O   0  0  0  0  0  0  0  0  0  0  0  0
   -5.0190   -0.5071    0.0000 C   0  0  0  0  0  0  0  0  0  0  0  0
   -5.1235   -1.5017    0.0000 C   0  0  0  0  0  0  0  0  0  0  0  0
  1  2  1  0  0  0  0
  2  3  1  0  0  0  0
  2 26  2  0  0  0  0
  3  4  1  0  0  0  0
  4  5  1  0  0  0  0
  4 25  2  0  0  0  0
  5  6  1  0  0  0  0
  5 24  1  0  0  0  0
  6  7  1  0  0  0  0
  7  8  1  0  0  0  0
  8  9  1  0  0  0  0
  8 23  1  0  0  0  0
  9 10  1  0  0  0  0
 10 11  1  0  0  0  0
 11 12  2  0  0  0  0
 11 13  2  0  0  0  0
 11 14  1  0  0  0  0
 14 15  1  1  0  0  0
 14 17  1  0  0  0  0
 15 16  1  0  0  0  0
 17 18  1  0  0  0  0
 17 22  2  0  0  0  0
 18 19  2  0  0  0  0
 19 20  1  0  0  0  0
 20 21  2  0  0  0  0
 21 22  1  0  0  0  0
 23 24  1  0  0  0  0
 25 26  1  0  0  0  0
 26 27  1  0  0  0  0
 27 28  1  0  0  0  0
 27 33  2  0  0  0  0
 28 29  2  0  0  0  0
 29 30  1  0  0  0  0
 30 31  2  0  0  0  0
 31 32  1  0  0  0  0
 31 33  1  0  0  0  0
 33 34  1  0  0  0  0
M  END
>  <ID> (INSCoV-025)
INSCoV-025

>  <HBA> (INSCoV-025)
6

>  <HBD> (INSCoV-025)
4

>  <MCE-18> (INSCoV-025)
83.33

>  <nRot> (INSCoV-025)
8

>  <TopoPSA> (INSCoV-025)
136.58

>  <chembl_closest> (INSCoV-025)
CHEMBL3317737

>  <chembl_max_sim> (INSCoV-025)
0.76

>  <nSC> (INSCoV-025)
1

>  <nAR> (INSCoV-025)
3

>  <MW> (INSCoV-025)
484.21

$$$$

  -ISIS-  -- StrEd -- 

 38 43  0  0  0  0  0  0  0  0999 V2000
    4.8813    3.1523    0.0000 O   0  0  0  0  0  0  0  0  0  0  0  0
    4.3728    2.2379    0.0000 C   0  0  0  0  0  0  0  0  0  0  0  0
    3.4578    2.2379    0.0000 N   0  0  0  0  0  0  0  0  0  0  0  0
    2.9497    1.4235    0.0000 C   0  0  2  0  0  0  0  0  0  0  0  0
    2.3387    2.2379    0.0000 C   0  0  0  0  0  0  0  0  0  0  0  0
    1.4231    1.9326    0.0000 C   0  0  0  0  0  0  0  0  0  0  0  0
    1.3226    0.9154    0.0000 N   0  0  0  0  0  0  0  0  0  0  0  0
    0.5093    0.4060    0.0000 C   0  0  0  0  0  0  0  0  0  0  0  0
    0.6110   -0.6096    0.0000 O   0  0  0  0  0  0  0  0  0  0  0  0
   -0.4068    0.8143    0.0000 C   0  0  0  0  0  0  0  0  0  0  0  0
   -0.6110    1.8299    0.0000 C   0  0  0  0  0  0  0  0  0  0  0  0
   -1.5248    1.9326    0.0000 C   0  0  0  0  0  0  0  0  0  0  0  0
   -2.1356    2.7457    0.0000 C   0  0  0  0  0  0  0  0  0  0  0  0
   -3.1519    2.6442    0.0000 C   0  0  0  0  0  0  0  0  0  0  0  0
   -3.5589    1.7284    0.0000 C   0  0  0  0  0  0  0  0  0  0  0  0
   -2.9477    0.9154    0.0000 C   0  0  0  0  0  0  0  0  0  0  0  0
   -3.4568   -0.0004    0.0000 C   0  0  0  0  0  0  0  0  0  0  0  0
   -2.8472   -0.8129    0.0000 O   0  0  0  0  0  0  0  0  0  0  0  0
   -4.3718   -0.0004    0.0000 N   0  0  0  0  0  0  0  0  0  0  0  0
   -4.8813   -0.9144    0.0000 C   0  0  0  0  0  0  0  0  0  0  0  0
   -4.2701   -1.7288    0.0000 C   0  0  0  0  0  0  0  0  0  0  0  0
   -4.6771   -2.6432    0.0000 C   0  0  0  0  0  0  0  0  0  0  0  0
   -4.1694   -3.4576    0.0000 O   0  0  0  0  0  0  0  0  0  0  0  0
   -5.6940   -2.7457    0.0000 C   0  0  0  0  0  0  0  0  0  0  0  0
   -6.3042   -1.9320    0.0000 C   0  0  0  0  0  0  0  0  0  0  0  0
   -5.7953   -1.0169    0.0000 C   0  0  0  0  0  0  0  0  0  0  0  0
   -6.4059   -0.2028    0.0000 Cl  0  0  0  0  0  0  0  0  0  0  0  0
   -1.9314    1.0169    0.0000 C   0  0  0  0  0  0  0  0  0  0  0  0
   -1.2199    0.3053    0.0000 N   0  0  0  0  0  0  0  0  0  0  0  0
    2.3387    0.6102    0.0000 C   0  0  0  0  0  0  0  0  0  0  0  0
    3.3563    0.5085    0.0000 O   0  0  0  0  0  0  0  0  0  0  0  0
    4.3728    0.5085    0.0000 C   0  0  0  0  0  0  0  0  0  0  0  0
    4.8813   -0.3053    0.0000 C   0  0  0  0  0  0  0  0  0  0  0  0
    5.8978   -0.3053    0.0000 C   0  0  0  0  0  0  0  0  0  0  0  0
    6.4059    0.5085    0.0000 C   0  0  0  0  0  0  0  0  0  0  0  0
    5.8978    1.4235    0.0000 C   0  0  0  0  0  0  0  0  0  0  0  0
    4.8813    1.4235    0.0000 C   0  0  0  0  0  0  0  0  0  0  0  0
   -3.6606    3.4576    0.0000 C   0  0  0  0  0  0  0  0  0  0  0  0
  1  2  2  0  0  0  0
  2  3  1  0  0  0  0
  2 37  1  0  0  0  0
  3  4  1  0  0  0  0
  4  5  1  6  0  0  0
  4 30  1  1  0  0  0
  4 31  1  0  0  0  0
  5  6  1  0  0  0  0
  6  7  1  0  0  0  0
  7  8  1  0  0  0  0
  7 30  1  0  0  0  0
  8  9  2  0  0  0  0
  8 10  1  0  0  0  0
 10 11  2  0  0  0  0
 10 29  1  0  0  0  0
 11 12  1  0  0  0  0
 12 13  1  0  0  0  0
 12 28  2  0  0  0  0
 13 14  2  0  0  0  0
 14 15  1  0  0  0  0
 14 38  1  0  0  0  0
 15 16  2  0  0  0  0
 16 17  1  0  0  0  0
 16 28  1  0  0  0  0
 17 18  2  0  0  0  0
 17 19  1  0  0  0  0
 19 20  1  0  0  0  0
 20 21  2  0  0  0  0
 20 26  1  0  0  0  0
 21 22  1  0  0  0  0
 22 23  1  0  0  0  0
 22 24  2  0  0  0  0
 24 25  1  0  0  0  0
 25 26  2  0  0  0  0
 26 27  1  0  0  0  0
 28 29  1  0  0  0  0
 31 32  1  0  0  0  0
 32 33  1  0  0  0  0
 32 37  2  0  0  0  0
 33 34  2  0  0  0  0
 34 35  1  0  0  0  0
 35 36  2  0  0  0  0
 36 37  1  0  0  0  0
M  END
>  <ID> (INSCoV-026)
INSCoV-026

>  <HBA> (INSCoV-026)
5

>  <HBD> (INSCoV-026)
4

>  <MCE-18> (INSCoV-026)
148.48

>  <nRot> (INSCoV-026)
3

>  <TopoPSA> (INSCoV-026)
123.76

>  <chembl_closest> (INSCoV-026)
CHEMBL372187

>  <chembl_max_sim> (INSCoV-026)
0.82

>  <nSC> (INSCoV-026)
1

>  <nAR> (INSCoV-026)
4

>  <MW> (INSCoV-026)
530.14

$$$$

  -ISIS-  -- StrEd -- 

 36 39  0  0  0  0  0  0  0  0999 V2000
   -2.9638    0.2810    0.0000 C   0  0  0  0  0  0  0  0  0  0  0  0
   -2.5099   -0.6104    0.0000 O   0  0  0  0  0  0  0  0  0  0  0  0
   -3.0543   -1.4482    0.0000 C   0  0  0  0  0  0  0  0  0  0  0  0
   -4.0529   -1.5010    0.0000 C   0  0  0  0  0  0  0  0  0  0  0  0
   -4.3117   -2.4669    0.0000 C   0  0  0  0  0  0  0  0  0  0  0  0
   -5.2028   -2.9206    0.0000 C   0  0  0  0  0  0  0  0  0  0  0  0
   -5.2550   -3.9194    0.0000 C   0  0  0  0  0  0  0  0  0  0  0  0
   -4.4166   -4.4641    0.0000 C   0  0  0  0  0  0  0  0  0  0  0  0
   -3.5258   -4.0102    0.0000 C   0  0  0  0  0  0  0  0  0  0  0  0
   -3.4731   -3.0121    0.0000 C   0  0  0  0  0  0  0  0  0  0  0  0
   -2.6961   -2.3823    0.0000 N   0  0  0  0  0  0  0  0  0  0  0  0
   -1.7299   -2.6411    0.0000 C   0  0  0  0  0  0  0  0  0  0  0  0
   -1.4714   -3.6067    0.0000 C   0  0  0  0  0  0  0  0  0  0  0  0
   -2.1780   -4.3142    0.0000 O   0  0  0  0  0  0  0  0  0  0  0  0
   -0.5055   -3.8655    0.0000 O   0  0  0  0  0  0  0  0  0  0  0  0
    0.2020   -3.1584    0.0000 C   0  0  0  0  0  0  0  0  0  0  0  0
    1.1679   -3.4169    0.0000 C   0  0  0  0  0  0  0  0  0  0  0  0
    1.4267   -4.3831    0.0000 O   0  0  0  0  0  0  0  0  0  0  0  0
    1.8746   -2.7106    0.0000 N   0  0  0  0  0  0  0  0  0  0  0  0
    2.8406   -2.9694    0.0000 C   0  0  0  0  0  0  0  0  0  0  0  0
    3.5481   -2.2619    0.0000 C   0  0  2  0  0  0  0  0  0  0  0  0
    4.5479   -2.2619    0.0000 C   0  0  2  0  0  0  0  0  0  0  0  0
    5.2550   -2.9694    0.0000 O   0  0  0  0  0  0  0  0  0  0  0  0
    4.5479   -1.2620    0.0000 C   0  0  0  0  0  0  0  0  0  0  0  0
    3.5481   -1.2620    0.0000 C   0  0  2  0  0  0  0  0  0  0  0  0
    2.8406   -0.5554    0.0000 N   0  0  0  0  0  0  0  0  0  0  0  0
    3.0998    0.4110    0.0000 C   0  0  0  0  0  0  0  0  0  0  0  0
    4.0657    0.6702    0.0000 O   0  0  0  0  0  0  0  0  0  0  0  0
    2.3927    1.1177    0.0000 N   0  0  0  0  0  0  0  0  0  0  0  0
    2.6511    2.0836    0.0000 C   0  0  0  0  0  0  0  0  0  0  0  0
    3.6171    2.3427    0.0000 C   0  0  0  0  0  0  0  0  0  0  0  0
    3.8759    3.3083    0.0000 C   0  0  0  0  0  0  0  0  0  0  0  0
    3.1688    4.0163    0.0000 C   0  0  0  0  0  0  0  0  0  0  0  0
    2.2028    3.7570    0.0000 C   0  0  0  0  0  0  0  0  0  0  0  0
    1.9443    2.7911    0.0000 C   0  0  0  0  0  0  0  0  0  0  0  0
    1.4954    4.4641    0.0000 F   0  0  0  0  0  0  0  0  0  0  0  0
  1  2  1  0  0  0  0
  2  3  1  0  0  0  0
  3  4  2  0  0  0  0
  3 11  1  0  0  0  0
  4  5  1  0  0  0  0
  5  6  1  0  0  0  0
  5 10  2  0  0  0  0
  6  7  2  0  0  0  0
  7  8  1  0  0  0  0
  8  9  2  0  0  0  0
  9 10  1  0  0  0  0
 10 11  1  0  0  0  0
 11 12  1  0  0  0  0
 12 13  1  0  0  0  0
 13 14  2  0  0  0  0
 13 15  1  0  0  0  0
 15 16  1  0  0  0  0
 16 17  1  0  0  0  0
 17 18  2  0  0  0  0
 17 19  1  0  0  0  0
 19 20  1  0  0  0  0
 21 20  1  1  0  0  0
 21 22  1  0  0  0  0
 21 25  1  0  0  0  0
 22 23  1  1  0  0  0
 22 24  1  0  0  0  0
 24 25  1  0  0  0  0
 25 26  1  1  0  0  0
 26 27  1  0  0  0  0
 27 28  2  0  0  0  0
 27 29  1  0  0  0  0
 29 30  1  0  0  0  0
 30 31  1  0  0  0  0
 30 35  2  0  0  0  0
 31 32  2  0  0  0  0
 32 33  1  0  0  0  0
 33 34  2  0  0  0  0
 34 35  1  0  0  0  0
 34 36  1  0  0  0  0
M  END
>  <ID> (INSCoV-027)
INSCoV-027

>  <HBA> (INSCoV-027)
6

>  <HBD> (INSCoV-027)
4

>  <MCE-18> (INSCoV-027)
77.82

>  <nRot> (INSCoV-027)
9

>  <TopoPSA> (INSCoV-027)
130.92

>  <chembl_closest> (INSCoV-027)
CHEMBL3673826

>  <chembl_max_sim> (INSCoV-027)
0.71

>  <nSC> (INSCoV-027)
3

>  <nAR> (INSCoV-027)
3

>  <MW> (INSCoV-027)
498.19

$$$$

  -ISIS-  -- StrEd -- 

 39 43  0  0  0  0  0  0  0  0999 V2000
    3.4413    0.1287    0.0000 C   0  0  0  0  0  0  0  0  0  0  0  0
    4.3116    0.6221    0.0000 C   0  0  0  0  0  0  0  0  0  0  0  0
    4.3190    1.6219    0.0000 C   0  0  0  0  0  0  0  0  0  0  0  0
    5.1886    2.1158    0.0000 F   0  0  0  0  0  0  0  0  0  0  0  0
    3.4567    2.1286    0.0000 C   0  0  0  0  0  0  0  0  0  0  0  0
    2.5865    1.6351    0.0000 C   0  0  0  0  0  0  0  0  0  0  0  0
    2.5791    0.6353    0.0000 C   0  0  0  0  0  0  0  0  0  0  0  0
    1.7096    0.1411    0.0000 N   0  0  0  0  0  0  0  0  0  0  0  0
    0.8475    0.6478    0.0000 C   0  0  0  0  0  0  0  0  0  0  0  0
    0.8551    1.6475    0.0000 O   0  0  0  0  0  0  0  0  0  0  0  0
   -0.0225    0.1544    0.0000 N   0  0  0  0  0  0  0  0  0  0  0  0
   -0.0297   -0.8454    0.0000 C   0  0  0  0  0  0  0  0  0  0  0  0
   -0.8992   -1.3391    0.0000 C   0  0  0  0  0  0  0  0  0  0  0  0
   -1.7619   -0.8324    0.0000 C   0  0  0  0  0  0  0  0  0  0  0  0
   -1.7546    0.1670    0.0000 C   0  0  0  0  0  0  0  0  0  0  0  0
   -0.8842    0.6604    0.0000 C   0  0  0  0  0  0  0  0  0  0  0  0
   -1.9079   -1.8220    0.0000 C   0  0  0  0  0  0  0  0  0  0  0  0
   -1.2714   -2.5927    0.0000 C   0  0  0  0  0  0  0  0  0  0  0  0
   -1.8073   -3.4370    0.0000 C   0  0  0  0  0  0  0  0  0  0  0  0
   -2.7759   -3.1881    0.0000 N   0  0  0  0  0  0  0  0  0  0  0  0
   -2.8382   -2.1898    0.0000 C   0  0  0  0  0  0  0  0  0  0  0  0
   -3.6215   -1.5679    0.0000 C   0  0  0  0  0  0  0  0  0  0  0  0
   -3.4752   -0.5789    0.0000 C   0  0  1  0  0  0  0  0  0  0  0  0
   -4.2585    0.0425    0.0000 C   0  0  0  0  0  0  0  0  0  0  0  0
   -5.1886   -0.3249    0.0000 N   0  0  0  0  0  0  0  0  0  0  0  0
   -4.1125    1.0320    0.0000 O   0  0  0  0  0  0  0  0  0  0  0  0
   -2.5448   -0.2114    0.0000 C   0  0  2  0  0  0  0  0  0  0  0  0
   -2.3988    0.7781    0.0000 C   0  0  0  0  0  0  0  0  0  0  0  0
   -1.4685    1.1455    0.0000 O   0  0  0  0  0  0  0  0  0  0  0  0
   -3.1822    1.3995    0.0000 O   0  0  0  0  0  0  0  0  0  0  0  0
   -3.0353    2.3885    0.0000 C   0  0  0  0  0  0  0  0  0  0  0  0
   -2.1058    2.7564    0.0000 C   0  0  0  0  0  0  0  0  0  0  0  0
   -1.9589    3.7452    0.0000 N   0  0  0  0  0  0  0  0  0  0  0  0
   -2.7423    4.3670    0.0000 C   0  0  0  0  0  0  0  0  0  0  0  0
   -3.6721    3.9996    0.0000 C   0  0  0  0  0  0  0  0  0  0  0  0
   -3.8190    3.0104    0.0000 C   0  0  0  0  0  0  0  0  0  0  0  0
   -4.7487    2.6426    0.0000 O   0  0  0  0  0  0  0  0  0  0  0  0
    5.1735    0.1158    0.0000 C   0  0  0  0  0  0  0  0  0  0  0  0
   -1.4398   -4.3670    0.0000 C   0  0  0  0  0  0  0  0  0  0  0  0
  1  2  2  0  0  0  0
  1  7  1  0  0  0  0
  2  3  1  0  0  0  0
  2 38  1  0  0  0  0
  3  4  1  0  0  0  0
  3  5  2  0  0  0  0
  5  6  1  0  0  0  0
  6  7  2  0  0  0  0
  7  8  1  0  0  0  0
  8  9  1  0  0  0  0
  9 10  2  0  0  0  0
  9 11  1  0  0  0  0
 11 12  1  0  0  0  0
 11 16  1  0  0  0  0
 12 13  1  0  0  0  0
 13 14  1  0  0  0  0
 14 15  1  0  0  0  0
 14 17  1  0  0  0  0
 14 27  1  0  0  0  0
 15 16  1  0  0  0  0
 17 18  1  0  0  0  0
 17 21  2  0  0  0  0
 18 19  2  0  0  0  0
 19 20  1  0  0  0  0
 19 39  1  0  0  0  0
 20 21  1  0  0  0  0
 21 22  1  0  0  0  0
 22 23  1  0  0  0  0
 23 24  1  1  0  0  0
 23 27  1  0  0  0  0
 24 25  1  0  0  0  0
 24 26  2  0  0  0  0
 27 28  1  6  0  0  0
 28 29  2  0  0  0  0
 28 30  1  0  0  0  0
 30 31  1  0  0  0  0
 31 32  2  0  0  0  0
 31 36  1  0  0  0  0
 32 33  1  0  0  0  0
 33 34  1  0  0  0  0
 34 35  2  0  0  0  0
 35 36  1  0  0  0  0
 36 37  2  0  0  0  0
M  END
>  <ID> (INSCoV-028)
INSCoV-028

>  <HBA> (INSCoV-028)
5

>  <HBD> (INSCoV-028)
5

>  <MCE-18> (INSCoV-028)
141.47

>  <nRot> (INSCoV-028)
4

>  <TopoPSA> (INSCoV-028)
150.38

>  <chembl_closest> (INSCoV-028)
CHEMBL3560151

>  <chembl_max_sim> (INSCoV-028)
0.8

>  <nSC> (INSCoV-028)
2

>  <nAR> (INSCoV-028)
2

>  <MW> (INSCoV-028)
535.22

$$$$

  -ISIS-  -- StrEd -- 

 48 52  0  0  1  0  0  0  0  0999 V2000
    4.4482    2.2937    0.0000 C   0  0  0  0  0  0  0  0  0  0  0  0
    5.2229    2.9261    0.0000 C   0  0  0  0  0  0  0  0  0  0  0  0
    6.1581    2.5711    0.0000 C   0  0  0  0  0  0  0  0  0  0  0  0
    6.3181    1.5836    0.0000 C   0  0  0  0  0  0  0  0  0  0  0  0
    7.2528    1.2291    0.0000 O   0  0  0  0  0  0  0  0  0  0  0  0
    5.5432    0.9524    0.0000 C   0  0  0  0  0  0  0  0  0  0  0  0
    5.7034   -0.0351    0.0000 C   0  0  0  0  0  0  0  0  0  0  0  0
    4.9287   -0.6677    0.0000 N   0  0  0  0  0  0  0  0  0  0  0  0
    3.9936   -0.3128    0.0000 C   0  0  0  0  0  0  0  0  0  0  0  0
    3.8336    0.6747    0.0000 O   0  0  0  0  0  0  0  0  0  0  0  0
    3.2187   -0.9447    0.0000 C   0  0  0  0  0  0  0  0  0  0  0  0
    2.2842   -0.5895    0.0000 C   0  0  0  0  0  0  0  0  0  0  0  0
    1.5095   -1.2219    0.0000 C   0  0  1  0  0  0  0  0  0  0  0  0
    0.6290   -0.7482    0.0000 N   0  0  0  0  0  0  0  0  0  0  0  0
    0.5993    0.2520    0.0000 C   0  0  0  0  0  0  0  0  0  0  0  0
    1.4497    0.7779    0.0000 O   0  0  0  0  0  0  0  0  0  0  0  0
   -0.2822    0.7248    0.0000 C   0  0  1  0  0  0  0  0  0  0  0  0
   -1.1326    0.1981    0.0000 N   0  0  0  0  0  0  0  0  0  0  0  0
   -2.0131    0.6709    0.0000 C   0  0  0  0  0  0  0  0  0  0  0  0
   -2.0442    1.6711    0.0000 O   0  0  0  0  0  0  0  0  0  0  0  0
   -2.8631    0.1448    0.0000 C   0  0  0  0  0  0  0  0  0  0  0  0
   -3.7438    0.6188    0.0000 C   0  0  0  0  0  0  0  0  0  0  0  0
   -4.5942    0.0925    0.0000 C   0  0  0  0  0  0  0  0  0  0  0  0
   -5.4750    0.5648    0.0000 C   0  0  0  0  0  0  0  0  0  0  0  0
   -6.3254    0.0385    0.0000 C   0  0  0  0  0  0  0  0  0  0  0  0
   -7.2066    0.5113    0.0000 C   0  0  0  0  0  0  0  0  0  0  0  0
   -6.2945   -0.9605    0.0000 N   0  0  0  0  0  0  0  0  0  0  0  0
   -5.4142   -1.4338    0.0000 C   0  0  0  0  0  0  0  0  0  0  0  0
   -4.5638   -0.9077    0.0000 C   0  0  0  0  0  0  0  0  0  0  0  0
   -3.6826   -1.3810    0.0000 C   0  0  0  0  0  0  0  0  0  0  0  0
   -2.8327   -0.8547    0.0000 C   0  0  0  0  0  0  0  0  0  0  0  0
   -1.9521   -1.3277    0.0000 C   0  0  1  0  0  0  0  0  0  0  0  0
   -1.9209   -2.3266    0.0000 C   0  0  0  0  0  0  0  0  0  0  0  0
   -1.1017   -0.8010    0.0000 O   0  0  0  0  0  0  0  0  0  0  0  0
   -0.3130    1.7239    0.0000 C   0  0  0  0  0  0  0  0  0  0  0  0
   -1.0412    2.4086    0.0000 C   0  0  0  0  0  0  0  0  0  0  0  0
   -0.3558    3.1375    0.0000 C   0  0  0  0  0  0  0  0  0  0  0  0
    0.3724    2.4528    0.0000 C   0  0  0  0  0  0  0  0  0  0  0  0
    0.8236   -1.9501    0.0000 C   0  0  0  0  0  0  0  0  0  0  0  0
    1.1115   -2.9079    0.0000 C   0  0  0  0  0  0  0  0  0  0  0  0
    2.0847   -3.1375    0.0000 C   0  0  0  0  0  0  0  0  0  0  0  0
    2.7701   -2.4098    0.0000 O   0  0  0  0  0  0  0  0  0  0  0  0
    2.4827   -1.4515    0.0000 C   0  0  0  0  0  0  0  0  0  0  0  0
    4.6085    1.3073    0.0000 C   0  0  0  0  0  0  0  0  0  0  0  0
   -5.5058    1.5643    0.0000 C   0  0  0  0  0  0  0  0  0  0  0  0
   -6.3870    2.0371    0.0000 N   0  0  0  0  0  0  0  0  0  0  0  0
   -6.3870    3.0378    0.0000 H   0  0  0  0  0  0  0  0  0  0  0  0
   -7.2528    1.5367    0.0000 H   0  0  0  0  0  0  0  0  0  0  0  0
  1  2  2  0  0  0  0
  1 44  1  0  0  0  0
  2  3  1  0  0  0  0
  3  4  2  0  0  0  0
  4  5  1  0  0  0  0
  4  6  1  0  0  0  0
  6  7  1  0  0  0  0
  6 44  2  0  0  0  0
  7  8  1  0  0  0  0
  8  9  1  0  0  0  0
  9 10  2  0  0  0  0
  9 11  1  0  0  0  0
 11 12  2  0  0  0  0
 13 12  1  6  0  0  0
 13 14  1  1  0  0  0
 13 39  1  0  0  0  0
 13 43  1  0  0  0  0
 14 15  1  0  0  0  0
 15 16  2  0  0  0  0
 17 15  1  0  0  0  0
 17 18  1  0  0  0  0
 17 35  1  1  0  0  0
 18 19  1  0  0  0  0
 19 20  2  0  0  0  0
 19 21  1  0  0  0  0
 21 22  1  0  0  0  0
 21 31  2  0  0  0  0
 22 23  2  0  0  0  0
 23 24  1  0  0  0  0
 23 29  1  0  0  0  0
 24 25  2  0  0  0  0
 24 45  1  0  0  0  0
 25 26  1  0  0  0  0
 25 27  1  0  0  0  0
 27 28  2  0  0  0  0
 28 29  1  0  0  0  0
 29 30  2  0  0  0  0
 30 31  1  0  0  0  0
 32 31  1  0  0  0  0
 32 33  1  0  0  0  0
 32 34  1  6  0  0  0
 35 36  1  0  0  0  0
 35 38  1  0  0  0  0
 36 37  1  0  0  0  0
 37 38  1  0  0  0  0
 39 40  1  0  0  0  0
 40 41  1  0  0  0  0
 41 42  1  0  0  0  0
 42 43  1  0  0  0  0
 45 46  1  0  0  0  0
 46 47  1  0  0  0  0
 46 48  1  0  0  0  0
M  END
>  <ID> (INSCoV-029)
INSCoV-029

>  <HBA> (INSCoV-029)
7

>  <HBD> (INSCoV-029)
8

>  <MCE-18> (INSCoV-029)
107.52

>  <nRot> (INSCoV-029)
11

>  <TopoPSA> (INSCoV-029)
175.9

>  <chembl_closest> (INSCoV-029)
CHEMBL3410871

>  <chembl_max_sim> (INSCoV-029)
0.7082

>  <nSC> (INSCoV-029)
3

>  <nAR> (INSCoV-029)
3

>  <MW> (INSCoV-029)
629.32

$$$$

  -ISIS-  -- StrEd -- 

 47 50  0  0  1  0  0  0  0  0999 V2000
   -6.0615    0.4999    0.0000 C   0  0  0  0  0  0  0  0  0  0  0  0
   -6.0615   -0.5004    0.0000 N   0  0  0  0  0  0  0  0  0  0  0  0
   -5.1960   -1.0000    0.0000 C   0  0  0  0  0  0  0  0  0  0  0  0
   -4.3297   -0.5004    0.0000 C   0  0  0  0  0  0  0  0  0  0  0  0
   -4.3297    0.4999    0.0000 C   0  0  0  0  0  0  0  0  0  0  0  0
   -5.1960    1.0000    0.0000 C   0  0  0  0  0  0  0  0  0  0  0  0
   -5.1960   -2.0003    0.0000 C   0  0  0  0  0  0  0  0  0  0  0  0
   -4.3297   -2.5004    0.0000 C   0  0  0  0  0  0  0  0  0  0  0  0
   -3.4634   -2.0003    0.0000 C   0  0  0  0  0  0  0  0  0  0  0  0
   -3.4634   -1.0000    0.0000 C   0  0  0  0  0  0  0  0  0  0  0  0
   -5.1960    1.9992    0.0000 C   0  0  0  0  0  0  0  0  0  0  0  0
   -6.0615    2.4991    0.0000 O   0  0  0  0  0  0  0  0  0  0  0  0
   -6.9278    1.0000    0.0000 C   0  0  0  0  0  0  0  0  0  0  0  0
   -3.4634    1.0000    0.0000 C   0  0  0  0  0  0  0  0  0  0  0  0
   -2.5979    0.4999    0.0000 N   0  0  0  0  0  0  0  0  0  0  0  0
   -3.4634    1.9992    0.0000 O   0  0  0  0  0  0  0  0  0  0  0  0
   -1.7316    1.0000    0.0000 C   0  0  2  0  0  0  0  0  0  0  0  0
   -0.8658    0.4999    0.0000 C   0  0  0  0  0  0  0  0  0  0  0  0
   -1.7316    1.9992    0.0000 C   0  0  0  0  0  0  0  0  0  0  0  0
   -0.8658    2.4991    0.0000 C   0  0  0  0  0  0  0  0  0  0  0  0
   -0.8658    3.4996    0.0000 C   0  0  0  0  0  0  0  0  0  0  0  0
    0.0011    1.9992    0.0000 C   0  0  0  0  0  0  0  0  0  0  0  0
    0.0011    1.0000    0.0000 N   0  0  0  0  0  0  0  0  0  0  0  0
   -0.8658   -0.5004    0.0000 O   0  0  0  0  0  0  0  0  0  0  0  0
    0.8666    0.4999    0.0000 C   0  0  2  0  0  0  0  0  0  0  0  0
    1.7329    1.0000    0.0000 C   0  0  0  0  0  0  0  0  0  0  0  0
    0.8666   -0.5004    0.0000 C   0  0  0  0  0  0  0  0  0  0  0  0
    0.0011   -1.0000    0.0000 C   0  0  0  0  0  0  0  0  0  0  0  0
    0.0011   -2.0003    0.0000 C   0  0  0  0  0  0  0  0  0  0  0  0
    0.8666   -2.5004    0.0000 C   0  0  0  0  0  0  0  0  0  0  0  0
    1.7329   -2.0003    0.0000 C   0  0  0  0  0  0  0  0  0  0  0  0
    1.7329   -1.0000    0.0000 C   0  0  0  0  0  0  0  0  0  0  0  0
    2.5984    0.4999    0.0000 C   0  0  0  0  0  0  0  0  0  0  0  0
    3.4647    1.0000    0.0000 C   0  0  0  0  0  0  0  0  0  0  0  0
    4.3305    0.4999    0.0000 N   0  0  0  0  0  0  0  0  0  0  0  0
    3.4647    1.9992    0.0000 O   0  0  0  0  0  0  0  0  0  0  0  0
    5.1966    1.0000    0.0000 C   0  0  0  0  0  0  0  0  0  0  0  0
    6.0623    0.4999    0.0000 C   0  0  0  0  0  0  0  0  0  0  0  0
    6.0623   -0.5004    0.0000 C   0  0  0  0  0  0  0  0  0  0  0  0
    6.9287   -1.0000    0.0000 C   0  0  0  0  0  0  0  0  0  0  0  0
    7.7942   -0.5004    0.0000 C   0  0  0  0  0  0  0  0  0  0  0  0
    7.7942    0.4999    0.0000 C   0  0  0  0  0  0  0  0  0  0  0  0
    6.9287    1.0000    0.0000 C   0  0  0  0  0  0  0  0  0  0  0  0
    8.6605    1.0000    0.0000 F   0  0  0  0  0  0  0  0  0  0  0  0
    0.8666   -3.4996    0.0000 O   0  0  0  0  0  0  0  0  0  0  0  0
   -7.7942    0.4999    0.0000 C   0  0  0  0  0  0  0  0  0  0  0  0
   -8.6605    1.0000    0.0000 N   0  0  0  0  0  0  0  0  0  0  0  0
  1  2  2  0  0  0  0
  2  3  1  0  0  0  0
  3  4  2  0  0  0  0
  4  5  1  0  0  0  0
  5  6  2  0  0  0  0
  6  1  1  0  0  0  0
  3  7  1  0  0  0  0
  7  8  2  0  0  0  0
  8  9  1  0  0  0  0
  9 10  2  0  0  0  0
 10  4  1  0  0  0  0
  6 11  1  0  0  0  0
 11 12  1  0  0  0  0
 13  1  1  0  0  0  0
  5 14  1  0  0  0  0
 14 15  1  0  0  0  0
 14 16  2  0  0  0  0
 15 17  1  0  0  0  0
 17 18  1  0  0  0  0
 17 19  1  1  0  0  0
 19 20  1  0  0  0  0
 20 21  1  0  0  0  0
 20 22  1  0  0  0  0
 18 23  1  0  0  0  0
 18 24  2  0  0  0  0
 25 23  1  6  0  0  0
 25 26  1  0  0  0  0
 25 27  1  0  0  0  0
 27 28  2  0  0  0  0
 28 29  1  0  0  0  0
 29 30  2  0  0  0  0
 30 31  1  0  0  0  0
 31 32  2  0  0  0  0
 32 27  1  0  0  0  0
 26 33  2  0  0  0  0
 33 34  1  0  0  0  0
 34 35  1  0  0  0  0
 34 36  2  0  0  0  0
 35 37  1  0  0  0  0
 37 38  1  0  0  0  0
 38 39  2  0  0  0  0
 39 40  1  0  0  0  0
 40 41  2  0  0  0  0
 41 42  1  0  0  0  0
 42 43  2  0  0  0  0
 43 38  1  0  0  0  0
 42 44  1  0  0  0  0
 30 45  1  0  0  0  0
 13 46  1  0  0  0  0
 46 47  1  0  0  0  0
M  END
>  <ID> (INSCoV-030)
INSCoV-030

>  <HBA> (INSCoV-030)
6

>  <HBD> (INSCoV-030)
8

>  <MCE-18> (INSCoV-030)
54

>  <nRot> (INSCoV-030)
14

>  <TopoPSA> (INSCoV-030)
166.67

>  <chembl_closest> (INSCoV-030)
CHEMBL2042183

>  <chembl_max_sim> (INSCoV-030)
0.79689

>  <nSC> (INSCoV-030)
2

>  <nAR> (INSCoV-030)
4

>  <MW> (INSCoV-030)
641.3

$$$$

  -ISIS-  -- StrEd -- 

 46 50  0  0  1  0  0  0  0  0999 V2000
    6.4950   -1.1836    0.0000 C   0  0  0  0  0  0  0  0  0  0  0  0
    7.3615   -0.6837    0.0000 C   0  0  0  0  0  0  0  0  0  0  0  0
    7.3615    0.3159    0.0000 C   0  0  0  0  0  0  0  0  0  0  0  0
    6.4956    0.8160    0.0000 C   0  0  0  0  0  0  0  0  0  0  0  0
    5.6297    0.3165    0.0000 C   0  0  0  0  0  0  0  0  0  0  0  0
    4.7636    0.8164    0.0000 C   0  0  0  0  0  0  0  0  0  0  0  0
    3.8970    0.3165    0.0000 N   0  0  0  0  0  0  0  0  0  0  0  0
    3.0311    0.8171    0.0000 C   0  0  0  0  0  0  0  0  0  0  0  0
    3.0318    1.8172    0.0000 O   0  0  0  0  0  0  0  0  0  0  0  0
    2.1652    0.3170    0.0000 C   0  0  0  0  0  0  0  0  0  0  0  0
    1.2986    0.8171    0.0000 C   0  0  0  0  0  0  0  0  0  0  0  0
    0.4334    0.3170    0.0000 C   0  0  1  0  0  0  0  0  0  0  0  0
   -0.4327    0.8171    0.0000 N   0  0  0  0  0  0  0  0  0  0  0  0
   -1.2993    0.3170    0.0000 C   0  0  0  0  0  0  0  0  0  0  0  0
   -1.2993   -0.6830    0.0000 O   0  0  0  0  0  0  0  0  0  0  0  0
   -2.1652    0.8171    0.0000 C   0  0  1  0  0  0  0  0  0  0  0  0
   -3.0311    0.3170    0.0000 N   0  0  0  0  0  0  0  0  0  0  0  0
   -3.8970    0.8176    0.0000 C   0  0  0  0  0  0  0  0  0  0  0  0
   -3.8970    1.8172    0.0000 O   0  0  0  0  0  0  0  0  0  0  0  0
   -4.7636    0.3177    0.0000 C   0  0  0  0  0  0  0  0  0  0  0  0
   -5.6291    0.8176    0.0000 C   0  0  0  0  0  0  0  0  0  0  0  0
   -6.4956    0.3177    0.0000 C   0  0  0  0  0  0  0  0  0  0  0  0
   -7.3615    0.8176    0.0000 C   0  0  0  0  0  0  0  0  0  0  0  0
   -6.4956   -0.6823    0.0000 N   0  0  0  0  0  0  0  0  0  0  0  0
   -7.2387   -1.3513    0.0000 N   0  0  0  0  0  0  0  0  0  0  0  0
   -6.8324   -2.2653    0.0000 C   0  0  0  0  0  0  0  0  0  0  0  0
   -5.8375   -2.1606    0.0000 C   0  0  0  0  0  0  0  0  0  0  0  0
   -5.6297   -1.1824    0.0000 C   0  0  0  0  0  0  0  0  0  0  0  0
   -4.7636   -0.6823    0.0000 C   0  0  0  0  0  0  0  0  0  0  0  0
   -3.8977   -1.1829    0.0000 C   0  0  0  0  0  0  0  0  0  0  0  0
   -3.0311   -0.6830    0.0000 O   0  0  0  0  0  0  0  0  0  0  0  0
   -2.1652    1.8172    0.0000 C   0  0  1  0  0  0  0  0  0  0  0  0
   -2.6651    2.6831    0.0000 C   0  0  0  0  0  0  0  0  0  0  0  0
   -1.6653    2.6831    0.0000 C   0  0  0  0  0  0  0  0  0  0  0  0
    0.4334   -0.6830    0.0000 C   0  0  0  0  0  0  0  0  0  0  0  0
    1.2986   -1.1836    0.0000 C   0  0  0  0  0  0  0  0  0  0  0  0
    1.2986   -2.1832    0.0000 C   0  0  0  0  0  0  0  0  0  0  0  0
    0.4334   -2.6831    0.0000 C   0  0  0  0  0  0  0  0  0  0  0  0
    0.4334   -3.6831    0.0000 O   0  0  0  0  0  0  0  0  0  0  0  0
   -0.4327   -2.1832    0.0000 C   0  0  0  0  0  0  0  0  0  0  0  0
   -0.4327   -1.1836    0.0000 C   0  0  0  0  0  0  0  0  0  0  0  0
    5.6297   -0.6842    0.0000 C   0  0  0  0  0  0  0  0  0  0  0  0
   -0.7992    3.1832    0.0000 C   0  0  0  0  0  0  0  0  0  0  0  0
   -5.4312   -3.0748    0.0000 C   0  0  0  0  0  0  0  0  0  0  0  0
   -4.4530   -3.2821    0.0000 N   0  0  0  0  0  0  0  0  0  0  0  0
   -1.6653    3.6831    0.0000 C   0  0  0  0  0  0  0  0  0  0  0  0
  1  2  1  0  0  0  0
  1 42  2  0  0  0  0
  2  3  2  0  0  0  0
  3  4  1  0  0  0  0
  4  5  2  0  0  0  0
  5  6  1  0  0  0  0
  5 42  1  0  0  0  0
  6  7  1  0  0  0  0
  7  8  1  0  0  0  0
  8  9  2  0  0  0  0
  8 10  1  0  0  0  0
 10 11  2  0  0  0  0
 11 12  1  0  0  0  0
 12 13  1  6  0  0  0
 12 35  1  0  0  0  0
 13 14  1  0  0  0  0
 14 15  2  0  0  0  0
 16 14  1  0  0  0  0
 16 17  1  1  0  0  0
 16 32  1  0  0  0  0
 17 18  1  0  0  0  0
 18 19  2  0  0  0  0
 18 20  1  0  0  0  0
 20 21  1  0  0  0  0
 20 29  2  0  0  0  0
 21 22  2  0  0  0  0
 22 23  1  0  0  0  0
 22 24  1  0  0  0  0
 24 25  1  0  0  0  0
 24 28  1  0  0  0  0
 25 26  2  0  0  0  0
 26 27  1  0  0  0  0
 27 28  2  0  0  0  0
 44 27  1  0  0  0  0
 28 29  1  0  0  0  0
 29 30  1  0  0  0  0
 30 31  1  0  0  0  0
 32 33  1  1  0  0  0
 32 34  1  0  0  0  0
 33 34  1  0  0  0  0
 34 43  1  0  0  0  0
 35 36  1  0  0  0  0
 35 41  2  0  0  0  0
 36 37  2  0  0  0  0
 37 38  1  0  0  0  0
 38 39  1  0  0  0  0
 38 40  2  0  0  0  0
 40 41  1  0  0  0  0
 44 45  1  0  0  0  0
 34 46  1  0  0  0  0
M  END
>  <ID> (INSCoV-031)
INSCoV-031

>  <HBA> (INSCoV-031)
6

>  <HBD> (INSCoV-031)
8

>  <MCE-18> (INSCoV-031)
103.3

>  <nRot> (INSCoV-031)
12

>  <TopoPSA> (INSCoV-031)
171.08

>  <chembl_closest> (INSCoV-031)
No

>  <chembl_max_sim> (INSCoV-031)
0.7

>  <nSC> (INSCoV-031)
3

>  <nAR> (INSCoV-031)
3

>  <MW> (INSCoV-031)
624.31

$$$$

  -ISIS-  -- StrEd -- 

 50 53  0  0  1  0  0  0  0  0999 V2000
   -5.0949    7.3301    0.0000 C   0  0  0  0  0  0  0  0  0  0  0  0
   -5.5766    6.4518    0.0000 O   0  0  0  0  0  0  0  0  0  0  0  0
   -5.0578    5.5951    0.0000 C   0  0  0  0  0  0  0  0  0  0  0  0
   -4.0558    5.6174    0.0000 C   0  0  0  0  0  0  0  0  0  0  0  0
   -3.5361    4.7607    0.0000 C   0  0  0  0  0  0  0  0  0  0  0  0
   -4.0180    3.8815    0.0000 C   0  0  0  0  0  0  0  0  0  0  0  0
   -3.4990    3.0259    0.0000 S   0  0  0  0  0  0  0  0  0  0  0  0
   -4.3561    2.5053    0.0000 O   0  0  0  0  0  0  0  0  0  0  0  0
   -2.6425    3.5450    0.0000 O   0  0  0  0  0  0  0  0  0  0  0  0
   -2.9451    2.3188    0.0000 N   0  0  0  0  0  0  0  0  0  0  0  0
   -2.0765    1.8183    0.0000 C   0  0  1  0  0  0  0  0  0  0  0  0
   -1.1194    2.1143    0.0000 C   0  0  0  0  0  0  0  0  0  0  0  0
   -0.8968    3.0912    0.0000 O   0  0  0  0  0  0  0  0  0  0  0  0
   -0.3835    1.4333    0.0000 N   0  0  0  0  0  0  0  0  0  0  0  0
    0.5731    1.7292    0.0000 C   0  0  2  0  0  0  0  0  0  0  0  0
    0.8695    0.7722    0.0000 C   0  0  0  0  0  0  0  0  0  0  0  0
    0.1881    0.0371    0.0000 O   0  0  0  0  0  0  0  0  0  0  0  0
    1.8467    0.5493    0.0000 N   0  0  0  0  0  0  0  0  0  0  0  0
    2.1431   -0.4073    0.0000 C   0  0  0  0  0  0  0  0  0  0  0  0
    3.1192   -0.6297    0.0000 C   0  0  0  0  0  0  0  0  0  0  0  0
    3.4151   -1.5865    0.0000 C   0  0  0  0  0  0  0  0  0  0  0  0
    4.3923   -1.8089    0.0000 C   0  0  0  0  0  0  0  0  0  0  0  0
    5.0736   -1.0741    0.0000 O   0  0  0  0  0  0  0  0  0  0  0  0
    4.6876   -2.7650    0.0000 N   0  0  0  0  0  0  0  0  0  0  0  0
    4.0073   -3.5010    0.0000 C   0  0  0  0  0  0  0  0  0  0  0  0
    4.3037   -4.4583    0.0000 C   0  0  0  0  0  0  0  0  0  0  0  0
    5.2809   -4.6809    0.0000 C   0  0  0  0  0  0  0  0  0  0  0  0
    5.5766   -5.6371    0.0000 C   0  0  0  0  0  0  0  0  0  0  0  0
    4.8958   -6.3730    0.0000 C   0  0  0  0  0  0  0  0  0  0  0  0
    5.1918   -7.3301    0.0000 Cl  0  0  0  0  0  0  0  0  0  0  0  0
    3.9186   -6.1509    0.0000 C   0  0  0  0  0  0  0  0  0  0  0  0
    3.6233   -5.1938    0.0000 C   0  0  0  0  0  0  0  0  0  0  0  0
    1.5306    2.0256    0.0000 C   0  0  0  0  0  0  0  0  0  0  0  0
    1.2340    2.9822    0.0000 C   0  0  1  0  0  0  0  0  0  0  0  0
    0.2774    2.6862    0.0000 C   0  0  0  0  0  0  0  0  0  0  0  0
   -1.7803    0.8613    0.0000 C   0  0  0  0  0  0  0  0  0  0  0  0
   -0.8031    0.6391    0.0000 C   0  0  0  0  0  0  0  0  0  0  0  0
   -0.5067   -0.3179    0.0000 C   0  0  0  0  0  0  0  0  0  0  0  0
   -1.1879   -1.0535    0.0000 N   0  0  0  0  0  0  0  0  0  0  0  0
   -2.1663   -0.8308    0.0000 C   0  0  0  0  0  0  0  0  0  0  0  0
   -2.4615    0.1262    0.0000 C   0  0  0  0  0  0  0  0  0  0  0  0
   -3.4387    0.3484    0.0000 F   0  0  0  0  0  0  0  0  0  0  0  0
   -5.0206    3.8597    0.0000 C   0  0  0  0  0  0  0  0  0  0  0  0
   -5.5402    4.7169    0.0000 C   0  0  0  0  0  0  0  0  0  0  0  0
    1.7024    3.8696    0.0000 C   0  0  0  0  0  0  0  0  0  0  0  0
    1.6642    4.8706    0.0000 F   0  0  0  0  0  0  0  0  0  0  0  0
    0.8159    4.3360    0.0000 F   0  0  0  0  0  0  0  0  0  0  0  0
    2.7039    3.9067    0.0000 F   0  0  0  0  0  0  0  0  0  0  0  0
   -5.5024    2.9817    0.0000 F   0  0  0  0  0  0  0  0  0  0  0  0
   -2.0765    2.8198    0.0000 C   0  0  0  0  0  0  0  0  0  0  0  0
  1  2  1  0  0  0  0
  2  3  1  0  0  0  0
  3  4  2  0  0  0  0
  3 44  1  0  0  0  0
  4  5  1  0  0  0  0
  5  6  2  0  0  0  0
  6  7  1  0  0  0  0
  6 43  1  0  0  0  0
  7  8  2  0  0  0  0
  7  9  2  0  0  0  0
 11 10  1  1  0  0  0
 11 12  1  0  0  0  0
 11 36  1  0  0  0  0
 12 13  2  0  0  0  0
 12 14  1  0  0  0  0
 15 14  1  1  0  0  0
 15 16  1  6  0  0  0
 15 33  1  0  0  0  0
 15 35  1  0  0  0  0
 16 17  2  0  0  0  0
 16 18  1  0  0  0  0
 19 18  1  0  0  0  0
 19 20  1  0  0  0  0
 20 21  2  0  0  0  0
 21 22  1  0  0  0  0
 22 23  2  0  0  0  0
 22 24  1  0  0  0  0
 24 25  1  0  0  0  0
 25 26  1  0  0  0  0
 26 27  1  0  0  0  0
 26 32  2  0  0  0  0
 27 28  2  0  0  0  0
 28 29  1  0  0  0  0
 29 30  1  0  0  0  0
 29 31  2  0  0  0  0
 31 32  1  0  0  0  0
 33 34  1  0  0  0  0
 34 35  1  0  0  0  0
 34 45  1  1  0  0  0
 36 37  2  0  0  0  0
 36 41  1  0  0  0  0
 37 38  1  0  0  0  0
 38 39  2  0  0  0  0
 39 40  1  0  0  0  0
 40 41  2  0  0  0  0
 41 42  1  0  0  0  0
 43 44  2  0  0  0  0
 43 49  1  0  0  0  0
 45 46  1  0  0  0  0
 45 47  1  0  0  0  0
 45 48  1  0  0  0  0
 10  7  1  0  0  0  0
 11 50  1  6  0  0  0
M  END
>  <ID> (INSCoV-032)
INSCoV-032

>  <HBA> (INSCoV-032)
7

>  <HBD> (INSCoV-032)
4

>  <MCE-18> (INSCoV-032)
111.67

>  <nRot> (INSCoV-032)
13

>  <TopoPSA> (INSCoV-032)
163.97

>  <chembl_closest> (INSCoV-032)
CHEMBL569442

>  <chembl_max_sim> (INSCoV-032)
0.76812

>  <nSC> (INSCoV-032)
3

>  <nAR> (INSCoV-032)
3

>  <MW> (INSCoV-032)
743.16

$$$$

  -ISIS-  -- StrEd -- 

 45 49  0  0  1  0  0  0  0  0999 V2000
    4.4750   -3.2256    0.0000 C   0  0  0  0  0  0  0  0  0  0  0  0
    4.9924   -4.0809    0.0000 C   0  0  0  0  0  0  0  0  0  0  0  0
    5.9919   -4.0611    0.0000 C   0  0  0  0  0  0  0  0  0  0  0  0
    6.4745   -3.1854    0.0000 C   0  0  0  0  0  0  0  0  0  0  0  0
    7.4747   -3.1653    0.0000 F   0  0  0  0  0  0  0  0  0  0  0  0
    5.9578   -2.3298    0.0000 C   0  0  0  0  0  0  0  0  0  0  0  0
    4.9576   -2.3496    0.0000 C   0  0  0  0  0  0  0  0  0  0  0  0
    4.4409   -1.4935    0.0000 C   0  0  0  0  0  0  0  0  0  0  0  0
    3.4407   -1.5134    0.0000 N   0  0  0  0  0  0  0  0  0  0  0  0
    2.9240   -0.6580    0.0000 C   0  0  0  0  0  0  0  0  0  0  0  0
    3.4061    0.2177    0.0000 O   0  0  0  0  0  0  0  0  0  0  0  0
    1.9238   -0.6779    0.0000 C   0  0  0  0  0  0  0  0  0  0  0  0
    1.4066    0.1787    0.0000 C   0  0  0  0  0  0  0  0  0  0  0  0
    0.4069    0.1588    0.0000 C   0  0  1  0  0  0  0  0  0  0  0  0
   -0.1098    1.0154    0.0000 N   0  0  0  0  0  0  0  0  0  0  0  0
   -1.1093    0.9955    0.0000 C   0  0  0  0  0  0  0  0  0  0  0  0
   -1.5926    0.1203    0.0000 O   0  0  0  0  0  0  0  0  0  0  0  0
   -1.6262    1.8516    0.0000 C   0  0  0  0  0  0  0  0  0  0  0  0
   -2.4828    1.3347    0.0000 N   0  0  0  0  0  0  0  0  0  0  0  0
   -3.3587    1.8180    0.0000 C   0  0  0  0  0  0  0  0  0  0  0  0
   -3.3779    2.8177    0.0000 O   0  0  0  0  0  0  0  0  0  0  0  0
   -4.2141    1.3013    0.0000 C   0  0  0  0  0  0  0  0  0  0  0  0
   -4.1947    0.3018    0.0000 C   0  0  0  0  0  0  0  0  0  0  0  0
   -3.3195   -0.1810    0.0000 C   0  0  0  0  0  0  0  0  0  0  0  0
   -5.0508   -0.2149    0.0000 C   0  0  0  0  0  0  0  0  0  0  0  0
   -5.9260    0.2677    0.0000 C   0  0  0  0  0  0  0  0  0  0  0  0
   -6.8716   -0.0600    0.0000 N   0  0  0  0  0  0  0  0  0  0  0  0
   -7.1617   -1.0166    0.0000 C   0  0  0  0  0  0  0  0  0  0  0  0
   -7.4747    0.7374    0.0000 C   0  0  0  0  0  0  0  0  0  0  0  0
   -6.9036    1.5578    0.0000 C   0  0  0  0  0  0  0  0  0  0  0  0
   -5.9459    1.2679    0.0000 C   0  0  0  0  0  0  0  0  0  0  0  0
   -5.0898    1.7846    0.0000 C   0  0  0  0  0  0  0  0  0  0  0  0
   -2.1436    2.7082    0.0000 C   0  0  0  0  0  0  0  0  0  0  0  0
   -1.2868    3.2251    0.0000 C   0  0  0  0  0  0  0  0  0  0  0  0
   -1.8037    4.0809    0.0000 C   0  0  0  0  0  0  0  0  0  0  0  0
   -0.7701    2.3683    0.0000 C   0  0  0  0  0  0  0  0  0  0  0  0
   -0.0757   -0.7164    0.0000 C   0  0  0  0  0  0  0  0  0  0  0  0
    0.4410   -1.5725    0.0000 C   0  0  0  0  0  0  0  0  0  0  0  0
   -0.0423   -2.4484    0.0000 C   0  0  0  0  0  0  0  0  0  0  0  0
   -1.0418   -2.4683    0.0000 C   0  0  0  0  0  0  0  0  0  0  0  0
   -1.5251   -3.3435    0.0000 O   0  0  0  0  0  0  0  0  0  0  0  0
   -1.5587   -1.6115    0.0000 C   0  0  0  0  0  0  0  0  0  0  0  0
   -1.0752   -0.7363    0.0000 C   0  0  0  0  0  0  0  0  0  0  0  0
   -7.2308    2.5029    0.0000 N   0  0  0  0  0  0  0  0  0  0  0  0
   -0.4314    3.7418    0.0000 C   0  0  0  0  0  0  0  0  0  0  0  0
  1  2  2  0  0  0  0
  1  7  1  0  0  0  0
  2  3  1  0  0  0  0
  3  4  2  0  0  0  0
  4  5  1  0  0  0  0
  4  6  1  0  0  0  0
  6  7  2  0  0  0  0
  7  8  1  0  0  0  0
  8  9  1  0  0  0  0
  9 10  1  0  0  0  0
 10 11  2  0  0  0  0
 10 12  1  0  0  0  0
 12 13  2  0  0  0  0
 13 14  1  0  0  0  0
 14 15  1  6  0  0  0
 14 37  1  0  0  0  0
 15 16  1  0  0  0  0
 16 17  2  0  0  0  0
 16 18  1  0  0  0  0
 18 19  1  0  0  0  0
 18 33  1  0  0  0  0
 18 36  1  0  0  0  0
 19 20  1  0  0  0  0
 20 21  2  0  0  0  0
 20 22  1  0  0  0  0
 22 23  2  0  0  0  0
 22 32  1  0  0  0  0
 23 24  1  0  0  0  0
 23 25  1  0  0  0  0
 25 26  2  0  0  0  0
 26 27  1  0  0  0  0
 26 31  1  0  0  0  0
 27 28  1  0  0  0  0
 27 29  1  0  0  0  0
 29 30  2  0  0  0  0
 30 31  1  0  0  0  0
 30 44  1  0  0  0  0
 31 32  2  0  0  0  0
 33 34  1  0  0  0  0
 34 35  1  0  0  0  0
 34 36  1  0  0  0  0
 34 45  1  0  0  0  0
 37 38  1  0  0  0  0
 37 43  2  0  0  0  0
 38 39  2  0  0  0  0
 39 40  1  0  0  0  0
 40 41  1  0  0  0  0
 40 42  2  0  0  0  0
 42 43  1  0  0  0  0
M  END
>  <ID> (INSCoV-033)
INSCoV-033

>  <HBA> (INSCoV-033)
4

>  <HBD> (INSCoV-033)
6

>  <MCE-18> (INSCoV-033)
111.22

>  <nRot> (INSCoV-033)
9

>  <TopoPSA> (INSCoV-033)
138.48

>  <chembl_closest> (INSCoV-033)
CHEMBL3355216

>  <chembl_max_sim> (INSCoV-033)
0.80285

>  <nSC> (INSCoV-033)
1

>  <nAR> (INSCoV-033)
4

>  <MW> (INSCoV-033)
611.29

$$$$

  -ISIS-  -- StrEd -- 

 38 42  0  0  1  0  0  0  0  0999 V2000
    6.4661   -1.5448    0.0000 C   0  0  0  0  0  0  0  0  0  0  0  0
    7.3623   -1.1011    0.0000 C   0  0  0  0  0  0  0  0  0  0  0  0
    7.4259   -0.1026    0.0000 C   0  0  0  0  0  0  0  0  0  0  0  0
    6.5935    0.4509    0.0000 C   0  0  0  0  0  0  0  0  0  0  0  0
    5.6975    0.0079    0.0000 C   0  0  0  0  0  0  0  0  0  0  0  0
    4.8651    0.5614    0.0000 C   0  0  0  0  0  0  0  0  0  0  0  0
    3.9689    0.1184    0.0000 N   0  0  0  0  0  0  0  0  0  0  0  0
    3.1365    0.6718    0.0000 C   0  0  0  0  0  0  0  0  0  0  0  0
    3.2003    1.6704    0.0000 O   0  0  0  0  0  0  0  0  0  0  0  0
    2.2405    0.2288    0.0000 C   0  0  0  0  0  0  0  0  0  0  0  0
    1.4081    0.7834    0.0000 C   0  0  0  0  0  0  0  0  0  0  0  0
    0.5115    0.3397    0.0000 C   0  0  1  0  0  0  0  0  0  0  0  0
   -0.3205    0.8944    0.0000 N   0  0  0  0  0  0  0  0  0  0  0  0
   -1.2169    0.4514    0.0000 C   0  0  0  0  0  0  0  0  0  0  0  0
   -1.2812   -0.5467    0.0000 O   0  0  0  0  0  0  0  0  0  0  0  0
   -2.0489    1.0067    0.0000 C   0  0  0  0  0  0  0  0  0  0  0  0
   -2.9451    0.5630    0.0000 N   0  0  0  0  0  0  0  0  0  0  0  0
   -3.7779    1.1164    0.0000 C   0  0  0  0  0  0  0  0  0  0  0  0
   -3.7144    2.1150    0.0000 O   0  0  0  0  0  0  0  0  0  0  0  0
   -4.6735    0.6734    0.0000 C   0  0  0  0  0  0  0  0  0  0  0  0
   -5.5059    1.2269    0.0000 C   0  0  0  0  0  0  0  0  0  0  0  0
   -5.4420    2.2257    0.0000 C   0  0  0  0  0  0  0  0  0  0  0  0
   -6.4025    0.7839    0.0000 C   0  0  0  0  0  0  0  0  0  0  0  0
   -6.4661   -0.2147    0.0000 C   0  0  0  0  0  0  0  0  0  0  0  0
   -7.3623   -0.6577    0.0000 C   0  0  0  0  0  0  0  0  0  0  0  0
   -7.4259   -1.6558    0.0000 C   0  0  0  0  0  0  0  0  0  0  0  0
   -6.5935   -2.2104    0.0000 N   0  0  0  0  0  0  0  0  0  0  0  0
   -5.6975   -1.7662    0.0000 C   0  0  0  0  0  0  0  0  0  0  0  0
   -5.6330   -0.7681    0.0000 C   0  0  0  0  0  0  0  0  0  0  0  0
   -4.7377   -0.3251    0.0000 C   0  0  0  0  0  0  0  0  0  0  0  0
   -2.4919    1.9027    0.0000 C   0  0  0  0  0  0  0  0  0  0  0  0
   -1.4942    1.8384    0.0000 C   0  0  0  0  0  0  0  0  0  0  0  0
    0.4472   -0.6577    0.0000 C   0  0  1  0  0  0  0  0  0  0  0  0
   -0.3975   -1.1926    0.0000 C   0  0  0  0  0  0  0  0  0  0  0  0
   -0.1508   -2.1612    0.0000 C   0  0  0  0  0  0  0  0  0  0  0  0
    0.8479   -2.2257    0.0000 O   0  0  0  0  0  0  0  0  0  0  0  0
    1.2169   -1.2963    0.0000 C   0  0  0  0  0  0  0  0  0  0  0  0
    5.6337   -0.9909    0.0000 C   0  0  0  0  0  0  0  0  0  0  0  0
  1  2  1  0  0  0  0
  1 38  2  0  0  0  0
  2  3  2  0  0  0  0
  3  4  1  0  0  0  0
  4  5  2  0  0  0  0
  5  6  1  0  0  0  0
  5 38  1  0  0  0  0
  6  7  1  0  0  0  0
  7  8  1  0  0  0  0
  8  9  2  0  0  0  0
  8 10  1  0  0  0  0
 10 11  2  0  0  0  0
 11 12  1  0  0  0  0
 12 13  1  6  0  0  0
 33 12  1  0  0  0  0
 13 14  1  0  0  0  0
 14 15  2  0  0  0  0
 14 16  1  0  0  0  0
 16 17  1  0  0  0  0
 16 31  1  0  0  0  0
 16 32  1  0  0  0  0
 17 18  1  0  0  0  0
 18 19  2  0  0  0  0
 18 20  1  0  0  0  0
 20 21  1  0  0  0  0
 20 30  2  0  0  0  0
 21 22  1  0  0  0  0
 21 23  2  0  0  0  0
 23 24  1  0  0  0  0
 24 25  1  0  0  0  0
 24 29  2  0  0  0  0
 25 26  1  0  0  0  0
 26 27  1  0  0  0  0
 27 28  1  0  0  0  0
 28 29  1  0  0  0  0
 29 30  1  0  0  0  0
 31 32  1  0  0  0  0
 33 34  1  6  0  0  0
 33 37  1  0  0  0  0
 34 35  1  0  0  0  0
 35 36  1  0  0  0  0
 36 37  1  0  0  0  0
M  END
>  <ID> (INSCoV-034)
INSCoV-034

>  <HBA> (INSCoV-034)
4

>  <HBD> (INSCoV-034)
5

>  <MCE-18> (INSCoV-034)
97.02

>  <nRot> (INSCoV-034)
9

>  <TopoPSA> (INSCoV-034)
108.56

>  <chembl_closest> (INSCoV-034)
No

>  <chembl_max_sim> (INSCoV-034)
0.7

>  <nSC> (INSCoV-034)
2

>  <nAR> (INSCoV-034)
2

>  <MW> (INSCoV-034)
516.27

$$$$

  -ISIS-  -- StrEd -- 

 42 46  0  0  1  0  0  0  0  0999 V2000
    4.4953   -1.8794    0.0000 C   0  0  0  0  0  0  0  0  0  0  0  0
    5.2531   -2.5318    0.0000 C   0  0  0  0  0  0  0  0  0  0  0  0
    6.1975   -2.2023    0.0000 C   0  0  0  0  0  0  0  0  0  0  0  0
    6.3837   -1.2195    0.0000 C   0  0  0  0  0  0  0  0  0  0  0  0
    5.6265   -0.5666    0.0000 C   0  0  0  0  0  0  0  0  0  0  0  0
    4.6822   -0.8965    0.0000 C   0  0  0  0  0  0  0  0  0  0  0  0
    3.9252   -0.2436    0.0000 C   0  0  0  0  0  0  0  0  0  0  0  0
    2.9811   -0.5736    0.0000 N   0  0  0  0  0  0  0  0  0  0  0  0
    2.2234    0.0793    0.0000 C   0  0  0  0  0  0  0  0  0  0  0  0
    2.4099    1.0617    0.0000 O   0  0  0  0  0  0  0  0  0  0  0  0
    1.2793   -0.2506    0.0000 C   0  0  0  0  0  0  0  0  0  0  0  0
    0.5212    0.4025    0.0000 C   0  0  0  0  0  0  0  0  0  0  0  0
   -0.4221    0.0726    0.0000 C   0  0  1  0  0  0  0  0  0  0  0  0
   -1.1793    0.7251    0.0000 N   0  0  0  0  0  0  0  0  0  0  0  0
   -2.1236    0.3956    0.0000 C   0  0  0  0  0  0  0  0  0  0  0  0
   -2.3101   -0.5873    0.0000 O   0  0  0  0  0  0  0  0  0  0  0  0
   -2.8811    1.0480    0.0000 C   0  0  2  0  0  0  0  0  0  0  0  0
   -3.5335    0.2906    0.0000 N   0  0  0  0  0  0  0  0  0  0  0  0
   -4.5164    0.4768    0.0000 C   0  0  0  0  0  0  0  0  0  0  0  0
   -4.8463    1.4212    0.0000 O   0  0  0  0  0  0  0  0  0  0  0  0
   -5.1688   -0.2806    0.0000 C   0  0  0  0  0  0  0  0  0  0  0  0
   -6.1516   -0.0941    0.0000 C   0  0  0  0  0  0  0  0  0  0  0  0
   -6.4809    0.8500    0.0000 C   0  0  0  0  0  0  0  0  0  0  0  0
   -6.8041   -0.8518    0.0000 C   0  0  0  0  0  0  0  0  0  0  0  0
   -6.4742   -1.7955    0.0000 C   0  0  0  0  0  0  0  0  0  0  0  0
   -6.9549   -2.6722    0.0000 C   0  0  0  0  0  0  0  0  0  0  0  0
   -6.2699   -3.4005    0.0000 N   0  0  0  0  0  0  0  0  0  0  0  0
   -5.3657   -2.9745    0.0000 C   0  0  0  0  0  0  0  0  0  0  0  0
   -5.4913   -1.9824    0.0000 N   0  0  0  0  0  0  0  0  0  0  0  0
   -4.8389   -1.2247    0.0000 C   0  0  0  0  0  0  0  0  0  0  0  0
   -3.6392    1.7009    0.0000 C   0  0  0  0  0  0  0  0  0  0  0  0
   -2.9863    2.4583    0.0000 C   0  0  2  0  0  0  0  0  0  0  0  0
   -2.2288    1.8055    0.0000 C   0  0  0  0  0  0  0  0  0  0  0  0
   -0.6090   -0.9098    0.0000 C   0  0  0  0  0  0  0  0  0  0  0  0
    0.1491   -1.5627    0.0000 C   0  0  0  0  0  0  0  0  0  0  0  0
   -0.0372   -2.5451    0.0000 C   0  0  0  0  0  0  0  0  0  0  0  0
   -0.9815   -2.8743    0.0000 N   0  0  0  0  0  0  0  0  0  0  0  0
   -1.7389   -2.2214    0.0000 N   0  0  0  0  0  0  0  0  0  0  0  0
   -1.5527   -1.2395    0.0000 C   0  0  0  0  0  0  0  0  0  0  0  0
    6.9549   -2.8548    0.0000 O   0  0  0  0  0  0  0  0  0  0  0  0
   -4.4885   -3.4555    0.0000 N   0  0  0  0  0  0  0  0  0  0  0  0
   -3.0606    3.4555    0.0000 C   0  0  0  0  0  0  0  0  0  0  0  0
  1  2  2  0  0  0  0
  1  6  1  0  0  0  0
  2  3  1  0  0  0  0
  3  4  2  0  0  0  0
  3 40  1  0  0  0  0
  4  5  1  0  0  0  0
  5  6  2  0  0  0  0
  6  7  1  0  0  0  0
  7  8  1  0  0  0  0
  8  9  1  0  0  0  0
  9 10  2  0  0  0  0
  9 11  1  0  0  0  0
 11 12  2  0  0  0  0
 12 13  1  0  0  0  0
 13 14  1  6  0  0  0
 13 34  1  0  0  0  0
 14 15  1  0  0  0  0
 15 16  2  0  0  0  0
 17 15  1  6  0  0  0
 17 18  1  1  0  0  0
 17 31  1  0  0  0  0
 17 33  1  0  0  0  0
 18 19  1  0  0  0  0
 19 20  2  0  0  0  0
 19 21  1  0  0  0  0
 21 22  1  0  0  0  0
 21 30  2  0  0  0  0
 22 23  1  0  0  0  0
 22 24  2  0  0  0  0
 24 25  1  0  0  0  0
 25 26  2  0  0  0  0
 25 29  1  0  0  0  0
 26 27  1  0  0  0  0
 27 28  2  0  0  0  0
 28 29  1  0  0  0  0
 28 41  1  0  0  0  0
 29 30  1  0  0  0  0
 31 32  1  0  0  0  0
 32 33  1  0  0  0  0
 32 42  1  1  0  0  0
 34 35  2  0  0  0  0
 34 39  1  0  0  0  0
 35 36  1  0  0  0  0
 36 37  2  0  0  0  0
 37 38  1  0  0  0  0
 38 39  2  0  0  0  0
M  END
>  <ID> (INSCoV-035)
INSCoV-035

>  <HBA> (INSCoV-035)
7

>  <HBD> (INSCoV-035)
6

>  <MCE-18> (INSCoV-035)
99.53

>  <nRot> (INSCoV-035)
9

>  <TopoPSA> (INSCoV-035)
176.63

>  <chembl_closest> (INSCoV-035)
CHEMBL3891043

>  <chembl_max_sim> (INSCoV-035)
0.72394

>  <nSC> (INSCoV-035)
3

>  <nAR> (INSCoV-035)
3

>  <MW> (INSCoV-035)
568.25

$$$$

  -ISIS-  -- StrEd -- 

 43 47  0  0  1  0  0  0  0  0999 V2000
   -3.4644   -0.6145    0.0000 C   0  0  0  0  0  0  0  0  0  0  0  0
   -2.5983   -0.1159    0.0000 N   0  0  0  0  0  0  0  0  0  0  0  0
   -1.7323   -0.6165    0.0000 C   0  0  0  0  0  0  0  0  0  0  0  0
   -1.7323   -1.6161    0.0000 O   0  0  0  0  0  0  0  0  0  0  0  0
   -0.8664   -0.1159    0.0000 N   0  0  0  0  0  0  0  0  0  0  0  0
   -0.8664    0.8837    0.0000 C   0  0  0  0  0  0  0  0  0  0  0  0
   -0.0002    0.3846    0.0000 C   0  0  0  0  0  0  0  0  0  0  0  0
   -0.0002   -0.6165    0.0000 O   0  0  0  0  0  0  0  0  0  0  0  0
    0.8657    0.8837    0.0000 N   0  0  0  0  0  0  0  0  0  0  0  0
    1.7323    0.3846    0.0000 C   0  0  2  0  0  0  0  0  0  0  0  0
    2.5983    0.8837    0.0000 C   0  0  0  0  0  0  0  0  0  0  0  0
    3.4644    0.3846    0.0000 C   0  0  0  0  0  0  0  0  0  0  0  0
    4.3306    0.8837    0.0000 C   0  0  0  0  0  0  0  0  0  0  0  0
    4.3306    1.8846    0.0000 O   0  0  0  0  0  0  0  0  0  0  0  0
    5.1965    0.3846    0.0000 O   0  0  0  0  0  0  0  0  0  0  0  0
    5.1965   -0.6165    0.0000 C   0  0  0  0  0  0  0  0  0  0  0  0
    6.0624   -1.1163    0.0000 C   0  0  0  0  0  0  0  0  0  0  0  0
    6.9286   -0.6165    0.0000 C   0  0  0  0  0  0  0  0  0  0  0  0
    7.7945   -1.1163    0.0000 C   0  0  0  0  0  0  0  0  0  0  0  0
    7.7945   -2.1160    0.0000 C   0  0  0  0  0  0  0  0  0  0  0  0
    6.9286   -2.6158    0.0000 C   0  0  0  0  0  0  0  0  0  0  0  0
    6.0624   -2.1160    0.0000 C   0  0  0  0  0  0  0  0  0  0  0  0
    1.7323   -0.6165    0.0000 C   0  0  0  0  0  0  0  0  0  0  0  0
    2.5983   -1.1163    0.0000 C   0  0  0  0  0  0  0  0  0  0  0  0
    2.5983   -2.1160    0.0000 C   0  0  0  0  0  0  0  0  0  0  0  0
    1.7323   -2.6158    0.0000 N   0  0  0  0  0  0  0  0  0  0  0  0
    0.8657   -2.1160    0.0000 C   0  0  0  0  0  0  0  0  0  0  0  0
    0.8657   -1.1163    0.0000 N   0  0  0  0  0  0  0  0  0  0  0  0
   -0.3659    1.7499    0.0000 C   0  0  0  0  0  0  0  0  0  0  0  0
   -0.8664    2.6158    0.0000 C   0  0  0  0  0  0  0  0  0  0  0  0
   -1.8661    2.6158    0.0000 O   0  0  0  0  0  0  0  0  0  0  0  0
   -2.3659    1.7499    0.0000 C   0  0  0  0  0  0  0  0  0  0  0  0
   -1.8661    0.8837    0.0000 C   0  0  0  0  0  0  0  0  0  0  0  0
   -4.3299   -0.1135    0.0000 C   0  0  0  0  0  0  0  0  0  0  0  0
   -4.3286    0.8861    0.0000 C   0  0  0  0  0  0  0  0  0  0  0  0
   -5.1946    1.3872    0.0000 C   0  0  0  0  0  0  0  0  0  0  0  0
   -6.0612    0.8878    0.0000 C   0  0  0  0  0  0  0  0  0  0  0  0
   -6.0619   -0.1118    0.0000 C   0  0  0  0  0  0  0  0  0  0  0  0
   -5.1965   -0.6128    0.0000 C   0  0  0  0  0  0  0  0  0  0  0  0
   -6.9291   -0.6111    0.0000 O   0  0  0  0  0  0  0  0  0  0  0  0
   -7.7945   -0.1101    0.0000 C   0  0  0  0  0  0  0  0  0  0  0  0
   -7.7933    0.8898    0.0000 C   0  0  0  0  0  0  0  0  0  0  0  0
   -6.9267    1.3889    0.0000 N   0  0  0  0  0  0  0  0  0  0  0  0
  1  2  1  0  0  0  0
  1 34  1  0  0  0  0
  2  3  1  0  0  0  0
  3  4  2  0  0  0  0
  3  5  1  0  0  0  0
  5  6  1  0  0  0  0
  6  7  1  0  0  0  0
  6 29  1  0  0  0  0
  6 33  1  0  0  0  0
  7  8  2  0  0  0  0
  7  9  1  0  0  0  0
 10  9  1  6  0  0  0
 10 11  1  0  0  0  0
 10 23  1  0  0  0  0
 11 12  2  0  0  0  0
 12 13  1  0  0  0  0
 13 14  2  0  0  0  0
 13 15  1  0  0  0  0
 15 16  1  0  0  0  0
 16 17  1  0  0  0  0
 17 18  2  0  0  0  0
 17 22  1  0  0  0  0
 18 19  1  0  0  0  0
 19 20  2  0  0  0  0
 20 21  1  0  0  0  0
 21 22  2  0  0  0  0
 23 24  2  0  0  0  0
 23 28  1  0  0  0  0
 24 25  1  0  0  0  0
 25 26  2  0  0  0  0
 26 27  1  0  0  0  0
 27 28  2  0  0  0  0
 29 30  1  0  0  0  0
 30 31  1  0  0  0  0
 31 32  1  0  0  0  0
 32 33  1  0  0  0  0
 34 35  2  0  0  0  0
 34 39  1  0  0  0  0
 35 36  1  0  0  0  0
 36 37  2  0  0  0  0
 37 38  1  0  0  0  0
 37 43  1  0  0  0  0
 38 39  2  0  0  0  0
 38 40  1  0  0  0  0
 40 41  1  0  0  0  0
 41 42  1  0  0  0  0
 42 43  1  0  0  0  0
M  END
>  <ID> (INSCoV-036)
INSCoV-036

>  <HBA> (INSCoV-036)
8

>  <HBD> (INSCoV-036)
4

>  <MCE-18> (INSCoV-036)
90.22

>  <nRot> (INSCoV-036)
10

>  <TopoPSA> (INSCoV-036)
152.8

>  <chembl_closest> (INSCoV-036)
CHEMBL1578356

>  <chembl_max_sim> (INSCoV-036)
0.72786

>  <nSC> (INSCoV-036)
1

>  <nAR> (INSCoV-036)
3

>  <MW> (INSCoV-036)
586.25

$$$$

  -ISIS-  -- StrEd -- 

 39 42  0  0  1  0  0  0  0  0999 V2000
   -6.5143   -1.3304    0.0000 C   0  0  0  0  0  0  0  0  0  0  0  0
   -6.4963   -0.3306    0.0000 C   0  0  0  0  0  0  0  0  0  0  0  0
   -7.2951    0.2717    0.0000 N   0  0  0  0  0  0  0  0  0  0  0  0
   -6.9691    1.2176    0.0000 N   0  0  0  0  0  0  0  0  0  0  0  0
   -5.9690    1.1991    0.0000 C   0  0  0  0  0  0  0  0  0  0  0  0
   -5.6774    0.2426    0.0000 C   0  0  0  0  0  0  0  0  0  0  0  0
   -4.7318   -0.0830    0.0000 C   0  0  0  0  0  0  0  0  0  0  0  0
   -3.9765    0.5724    0.0000 C   0  0  2  0  0  0  0  0  0  0  0  0
   -4.1671    1.5541    0.0000 C   0  0  0  0  0  0  0  0  0  0  0  0
   -3.0316    0.2464    0.0000 N   0  0  0  0  0  0  0  0  0  0  0  0
   -2.2756    0.9019    0.0000 C   0  0  0  0  0  0  0  0  0  0  0  0
   -2.4662    1.8835    0.0000 O   0  0  0  0  0  0  0  0  0  0  0  0
   -1.3307    0.5752    0.0000 N   0  0  0  0  0  0  0  0  0  0  0  0
   -0.5754    1.2306    0.0000 C   0  0  0  0  0  0  0  0  0  0  0  0
    0.3192    0.7840    0.0000 C   0  0  0  0  0  0  0  0  0  0  0  0
    1.1535    1.3348    0.0000 O   0  0  0  0  0  0  0  0  0  0  0  0
    0.3796   -0.2143    0.0000 N   0  0  0  0  0  0  0  0  0  0  0  0
    1.2737   -0.6616    0.0000 C   0  0  1  0  0  0  0  0  0  0  0  0
    2.1085   -0.1101    0.0000 C   0  0  0  0  0  0  0  0  0  0  0  0
    3.0026   -0.5574    0.0000 C   0  0  0  0  0  0  0  0  0  0  0  0
    3.8370   -0.0055    0.0000 C   0  0  0  0  0  0  0  0  0  0  0  0
    3.7768    0.9926    0.0000 O   0  0  0  0  0  0  0  0  0  0  0  0
    4.7318   -0.4530    0.0000 O   0  0  0  0  0  0  0  0  0  0  0  0
    5.5659    0.0985    0.0000 C   0  0  0  0  0  0  0  0  0  0  0  0
    5.5057    1.0968    0.0000 C   0  0  0  0  0  0  0  0  0  0  0  0
    6.3399    1.6476    0.0000 C   0  0  0  0  0  0  0  0  0  0  0  0
    7.2347    1.2007    0.0000 C   0  0  0  0  0  0  0  0  0  0  0  0
    7.2951    0.2027    0.0000 C   0  0  0  0  0  0  0  0  0  0  0  0
    6.4607   -0.3488    0.0000 C   0  0  0  0  0  0  0  0  0  0  0  0
    1.3341   -1.6599    0.0000 C   0  0  0  0  0  0  0  0  0  0  0  0
    2.1771   -2.1981    0.0000 C   0  0  0  0  0  0  0  0  0  0  0  0
    1.9259   -3.1656    0.0000 C   0  0  0  0  0  0  0  0  0  0  0  0
    0.9276   -3.2256    0.0000 N   0  0  0  0  0  0  0  0  0  0  0  0
    0.5622   -2.2954    0.0000 C   0  0  0  0  0  0  0  0  0  0  0  0
   -1.4039    1.7909    0.0000 C   0  0  0  0  0  0  0  0  0  0  0  0
   -1.3330    2.7881    0.0000 C   0  0  0  0  0  0  0  0  0  0  0  0
   -0.4343    3.2256    0.0000 C   0  0  0  0  0  0  0  0  0  0  0  0
    0.3944    2.6659    0.0000 C   0  0  0  0  0  0  0  0  0  0  0  0
    0.3235    1.6681    0.0000 C   0  0  0  0  0  0  0  0  0  0  0  0
  1  2  1  0  0  0  0
  2  3  1  0  0  0  0
  2  6  2  0  0  0  0
  3  4  1  0  0  0  0
  4  5  2  0  0  0  0
  5  6  1  0  0  0  0
  6  7  1  0  0  0  0
  8  7  1  0  0  0  0
  8  9  1  6  0  0  0
  8 10  1  0  0  0  0
 10 11  1  0  0  0  0
 11 12  2  0  0  0  0
 11 13  1  0  0  0  0
 13 14  1  0  0  0  0
 14 15  1  0  0  0  0
 14 35  1  0  0  0  0
 14 39  1  0  0  0  0
 15 16  2  0  0  0  0
 15 17  1  0  0  0  0
 18 17  1  1  0  0  0
 18 19  1  0  0  0  0
 18 30  1  0  0  0  0
 19 20  2  0  0  0  0
 20 21  1  0  0  0  0
 21 22  2  0  0  0  0
 21 23  1  0  0  0  0
 23 24  1  0  0  0  0
 24 25  2  0  0  0  0
 24 29  1  0  0  0  0
 25 26  1  0  0  0  0
 26 27  2  0  0  0  0
 27 28  1  0  0  0  0
 28 29  2  0  0  0  0
 30 31  1  0  0  0  0
 30 34  2  0  0  0  0
 31 32  2  0  0  0  0
 32 33  1  0  0  0  0
 33 34  1  0  0  0  0
 35 36  1  0  0  0  0
 36 37  1  0  0  0  0
 37 38  1  0  0  0  0
 38 39  1  0  0  0  0
M  END
>  <ID> (INSCoV-037)
INSCoV-037

>  <HBA> (INSCoV-037)
5

>  <HBD> (INSCoV-037)
5

>  <MCE-18> (INSCoV-037)
79.2

>  <nRot> (INSCoV-037)
10

>  <TopoPSA> (INSCoV-037)
141

>  <chembl_closest> (INSCoV-037)
CHEMBL395150

>  <chembl_max_sim> (INSCoV-037)
0.72101

>  <nSC> (INSCoV-037)
2

>  <nAR> (INSCoV-037)
3

>  <MW> (INSCoV-037)
532.28

$$$$

  -ISIS-  -- StrEd -- 

 40 44  0  0  0  0  0  0  0  0999 V2000
    8.2395   -1.7241    0.0000 C   0  0  0  0  0  0  0  0  0  0  0  0
    7.3893   -1.2326    0.0000 C   0  0  0  0  0  0  0  0  0  0  0  0
    7.3728   -0.2323    0.0000 C   0  0  0  0  0  0  0  0  0  0  0  0
    6.5169    0.2830    0.0000 C   0  0  0  0  0  0  0  0  0  0  0  0
    5.6595   -0.2315    0.0000 N   0  0  0  0  0  0  0  0  0  0  0  0
    4.7959    0.2668    0.0000 C   0  0  0  0  0  0  0  0  0  0  0  0
    4.7938    1.2591    0.0000 O   0  0  0  0  0  0  0  0  0  0  0  0
    3.9336   -0.2356    0.0000 C   0  0  0  0  0  0  0  0  0  0  0  0
    3.0738    0.2776    0.0000 C   0  0  0  0  0  0  0  0  0  0  0  0
    2.2203   -0.2392    0.0000 C   0  0  0  0  0  0  0  0  0  0  0  0
    2.2061   -1.2406    0.0000 C   0  0  0  0  0  0  0  0  0  0  0  0
    1.3567   -1.7321    0.0000 N   0  0  0  0  0  0  0  0  0  0  0  0
    0.4977   -1.2341    0.0000 C   0  0  0  0  0  0  0  0  0  0  0  0
    0.4998   -0.2418    0.0000 O   0  0  0  0  0  0  0  0  0  0  0  0
   -0.3625   -1.7280    0.0000 C   0  0  0  0  0  0  0  0  0  0  0  0
   -1.2212   -1.2297    0.0000 N   0  0  0  0  0  0  0  0  0  0  0  0
   -2.0800   -1.7251    0.0000 C   0  0  0  0  0  0  0  0  0  0  0  0
   -2.0794   -2.7177    0.0000 O   0  0  0  0  0  0  0  0  0  0  0  0
   -2.9510   -1.2321    0.0000 C   0  0  0  0  0  0  0  0  0  0  0  0
   -3.0391   -0.2304    0.0000 C   0  0  0  0  0  0  0  0  0  0  0  0
   -4.0157   -0.0554    0.0000 S   0  0  0  0  0  0  0  0  0  0  0  0
   -4.5242   -0.9051    0.0000 C   0  0  0  0  0  0  0  0  0  0  0  0
   -5.4988   -1.0137    0.0000 N   0  0  0  0  0  0  0  0  0  0  0  0
   -6.0836   -0.2109    0.0000 C   0  0  0  0  0  0  0  0  0  0  0  0
   -5.6814    0.6962    0.0000 O   0  0  0  0  0  0  0  0  0  0  0  0
   -7.0749   -0.3242    0.0000 C   0  0  0  0  0  0  0  0  0  0  0  0
   -7.1691    0.6615    0.0000 C   0  0  0  0  0  0  0  0  0  0  0  0
   -8.1077    1.1031    0.0000 C   0  0  0  0  0  0  0  0  0  0  0  0
   -8.2395    2.1266    0.0000 N   0  0  0  0  0  0  0  0  0  0  0  0
   -7.3867    2.7177    0.0000 C   0  0  0  0  0  0  0  0  0  0  0  0
   -6.4294    2.3184    0.0000 C   0  0  0  0  0  0  0  0  0  0  0  0
   -6.3439    1.2900    0.0000 C   0  0  0  0  0  0  0  0  0  0  0  0
   -8.0641   -0.4068    0.0000 C   0  0  0  0  0  0  0  0  0  0  0  0
   -7.9367   -1.3914    0.0000 C   0  0  0  0  0  0  0  0  0  0  0  0
   -6.9472   -1.3088    0.0000 C   0  0  0  0  0  0  0  0  0  0  0  0
   -3.8260   -1.6301    0.0000 N   0  0  0  0  0  0  0  0  0  0  0  0
    3.0834   -1.7233    0.0000 C   0  0  0  0  0  0  0  0  0  0  0  0
    3.9547   -1.2372    0.0000 C   0  0  0  0  0  0  0  0  0  0  0  0
    5.6412   -1.2315    0.0000 C   0  0  0  0  0  0  0  0  0  0  0  0
    6.5143   -1.7166    0.0000 C   0  0  0  0  0  0  0  0  0  0  0  0
  1  2  1  0  0  0  0
  2  3  1  0  0  0  0
  2 40  1  0  0  0  0
  3  4  1  0  0  0  0
  4  5  1  0  0  0  0
  5  6  1  0  0  0  0
  5 39  1  0  0  0  0
  6  7  2  0  0  0  0
  6  8  1  0  0  0  0
  8  9  1  0  0  0  0
  8 38  2  0  0  0  0
  9 10  2  0  0  0  0
 10 11  1  0  0  0  0
 11 12  1  0  0  0  0
 11 37  2  0  0  0  0
 12 13  1  0  0  0  0
 13 14  2  0  0  0  0
 13 15  1  0  0  0  0
 15 16  1  0  0  0  0
 16 17  1  0  0  0  0
 17 18  2  0  0  0  0
 17 19  1  0  0  0  0
 19 20  2  0  0  0  0
 19 36  1  0  0  0  0
 20 21  1  0  0  0  0
 21 22  1  0  0  0  0
 22 23  1  0  0  0  0
 22 36  2  0  0  0  0
 23 24  1  0  0  0  0
 24 25  2  0  0  0  0
 24 26  1  0  0  0  0
 26 27  1  0  0  0  0
 26 33  1  0  0  0  0
 26 35  1  0  0  0  0
 27 28  2  0  0  0  0
 27 32  1  0  0  0  0
 28 29  1  0  0  0  0
 29 30  2  0  0  0  0
 30 31  1  0  0  0  0
 31 32  2  0  0  0  0
 33 34  1  0  0  0  0
 34 35  1  0  0  0  0
 37 38  1  0  0  0  0
 39 40  1  0  0  0  0
M  END
>  <ID> (INSCoV-038)
INSCoV-038

>  <HBA> (INSCoV-038)
6

>  <HBD> (INSCoV-038)
3

>  <MCE-18> (INSCoV-038)
71.05

>  <nRot> (INSCoV-038)
8

>  <TopoPSA> (INSCoV-038)
161.63

>  <chembl_closest> (INSCoV-038)
CHEMBL3667174

>  <chembl_max_sim> (INSCoV-038)
0,778275

>  <nSC> (INSCoV-038)
0

>  <nAR> (INSCoV-038)
3

>  <MW> (INSCoV-038)
560.22

$$$$

  -ISIS-  -- StrEd -- 

 43 48  0  0  0  0  0  0  0  0999 V2000
    4.3381   -1.4373    0.0000 O   0  0  0  0  0  0  0  0  0  0  0  0
    4.3389   -2.4373    0.0000 C   0  0  0  0  0  0  0  0  0  0  0  0
    3.4737   -2.9352    0.0000 N   0  0  0  0  0  0  0  0  0  0  0  0
    2.6145   -2.4414    0.0000 C   0  0  0  0  0  0  0  0  0  0  0  0
    1.7409   -2.9135    0.0000 C   0  0  0  0  0  0  0  0  0  0  0  0
    0.8660   -2.4433    0.0000 C   0  0  0  0  0  0  0  0  0  0  0  0
    0.8641   -1.4183    0.0000 C   0  0  0  0  0  0  0  0  0  0  0  0
    0.0181   -0.9448    0.0000 C   0  0  0  0  0  0  0  0  0  0  0  0
   -0.8562   -1.4170    0.0000 N   0  0  0  0  0  0  0  0  0  0  0  0
   -1.7323   -0.9459    0.0000 C   0  0  0  0  0  0  0  0  0  0  0  0
   -2.5923   -1.4386    0.0000 O   0  0  0  0  0  0  0  0  0  0  0  0
   -3.4594   -0.9367    0.0000 C   0  0  0  0  0  0  0  0  0  0  0  0
   -4.3375   -1.4308    0.0000 C   0  0  0  0  0  0  0  0  0  0  0  0
   -3.6809   -2.1946    0.0000 O   0  0  0  0  0  0  0  0  0  0  0  0
   -4.6507   -0.4808    0.0000 C   0  0  0  0  0  0  0  0  0  0  0  0
   -5.6394   -0.3389    0.0000 C   0  0  0  0  0  0  0  0  0  0  0  0
   -6.3057   -1.0862    0.0000 N   0  0  0  0  0  0  0  0  0  0  0  0
   -7.2695   -0.9169    0.0000 C   0  0  0  0  0  0  0  0  0  0  0  0
   -7.8470   -0.1008    0.0000 C   0  0  0  0  0  0  0  0  0  0  0  0
   -8.6681   -0.6710    0.0000 C   0  0  0  0  0  0  0  0  0  0  0  0
   -8.0905   -1.4866    0.0000 C   0  0  0  0  0  0  0  0  0  0  0  0
   -5.9341   -2.0142    0.0000 C   0  0  0  0  0  0  0  0  0  0  0  0
   -4.9551   -2.2177    0.0000 C   0  0  0  0  0  0  0  0  0  0  0  0
   -1.7339    0.0802    0.0000 C   0  0  0  0  0  0  0  0  0  0  0  0
   -0.8581    0.5539    0.0000 N   0  0  0  0  0  0  0  0  0  0  0  0
    0.0173    0.0821    0.0000 C   0  0  0  0  0  0  0  0  0  0  0  0
    0.8787    0.5691    0.0000 O   0  0  0  0  0  0  0  0  0  0  0  0
    0.8812    1.5584    0.0000 C   0  0  0  0  0  0  0  0  0  0  0  0
    1.7423    2.0717    0.0000 C   0  0  0  0  0  0  0  0  0  0  0  0
    2.7461    2.0787    0.0000 C   0  0  0  0  0  0  0  0  0  0  0  0
    2.2304    2.9393    0.0000 C   0  0  0  0  0  0  0  0  0  0  0  0
    1.7396   -0.9421    0.0000 C   0  0  0  0  0  0  0  0  0  0  0  0
    2.6159   -1.4170    0.0000 C   0  0  0  0  0  0  0  0  0  0  0  0
    5.2038   -2.9347    0.0000 N   0  0  0  0  0  0  0  0  0  0  0  0
    6.0617   -2.4401    0.0000 C   0  0  0  0  0  0  0  0  0  0  0  0
    6.9380   -2.9098    0.0000 C   0  0  0  0  0  0  0  0  0  0  0  0
    7.8124   -2.4368    0.0000 C   0  0  0  0  0  0  0  0  0  0  0  0
    7.8102   -1.4105    0.0000 C   0  0  0  0  0  0  0  0  0  0  0  0
    6.9334   -0.9394    0.0000 C   0  0  0  0  0  0  0  0  0  0  0  0
    6.0590   -1.4132    0.0000 C   0  0  0  0  0  0  0  0  0  0  0  0
    0.0076   -2.9393    0.0000 C   0  0  0  0  0  0  0  0  0  0  0  0
    1.7390    0.0677    0.0000 F   0  0  0  0  0  0  0  0  0  0  0  0
    8.6681   -0.9137    0.0000 F   0  0  0  0  0  0  0  0  0  0  0  0
  1  2  2  0  0  0  0
  2  3  1  0  0  0  0
  2 34  1  0  0  0  0
  3  4  1  0  0  0  0
  4  5  2  0  0  0  0
  4 33  1  0  0  0  0
  5  6  1  0  0  0  0
  6  7  2  0  0  0  0
  6 41  1  0  0  0  0
  7  8  1  0  0  0  0
  7 32  1  0  0  0  0
  8  9  2  0  0  0  0
  8 26  1  0  0  0  0
  9 10  1  0  0  0  0
 10 11  1  0  0  0  0
 10 24  2  0  0  0  0
 11 12  1  0  0  0  0
 13 12  1  0  0  0  0
 13 14  1  0  0  0  0
 13 15  1  0  0  0  0
 13 23  1  0  0  0  0
 15 16  1  0  0  0  0
 16 17  1  0  0  0  0
 17 18  1  0  0  0  0
 17 22  1  0  0  0  0
 18 19  1  0  0  0  0
 18 21  1  0  0  0  0
 19 20  1  0  0  0  0
 20 21  1  0  0  0  0
 22 23  1  0  0  0  0
 24 25  1  0  0  0  0
 25 26  2  0  0  0  0
 26 27  1  0  0  0  0
 27 28  1  0  0  0  0
 28 29  1  0  0  0  0
 29 30  1  0  0  0  0
 29 31  1  0  0  0  0
 30 31  1  0  0  0  0
 32 33  2  0  0  0  0
 32 42  1  0  0  0  0
 34 35  1  0  0  0  0
 35 36  1  0  0  0  0
 35 40  2  0  0  0  0
 36 37  2  0  0  0  0
 37 38  1  0  0  0  0
 38 39  2  0  0  0  0
 38 43  1  0  0  0  0
 39 40  1  0  0  0  0
M  END
>  <ID> (INSCoV-039)
INSCoV-039

>  <HBA> (INSCoV-039)
6

>  <HBD> (INSCoV-039)
4

>  <MCE-18> (INSCoV-039)
85.36

>  <nRot> (INSCoV-039)
10

>  <TopoPSA> (INSCoV-039)
108.84

>  <chembl_closest> (INSCoV-039)
No

>  <chembl_max_sim> (INSCoV-039)
0,7

>  <nSC> (INSCoV-039)
0

>  <nAR> (INSCoV-039)
3

>  <MW> (INSCoV-039)
593.28

$$$$

  -ISIS-  -- StrEd -- 

 38 41  0  0  0  0  0  0  0  0999 V2000
    0.9965   -1.9733    0.0000 C   0  0  0  0  0  0  0  0  0  0  0  0
    1.4959   -1.1080    0.0000 C   0  0  2  0  0  0  0  0  0  0  0  0
    1.9953   -1.9731    0.0000 C   0  0  0  0  0  0  0  0  0  0  0  0
    2.9945   -1.9726    0.0000 O   0  0  0  0  0  0  0  0  0  0  0  0
    0.6291   -0.6080    0.0000 N   0  0  0  0  0  0  0  0  0  0  0  0
   -0.2365   -1.1083    0.0000 C   0  0  0  0  0  0  0  0  0  0  0  0
   -0.2354   -2.1074    0.0000 O   0  0  0  0  0  0  0  0  0  0  0  0
   -1.1042   -0.6100    0.0000 N   0  0  0  0  0  0  0  0  0  0  0  0
   -1.9588   -1.1089    0.0000 C   0  0  1  0  0  0  0  0  0  0  0  0
   -2.0738   -2.0979    0.0000 C   0  0  0  0  0  0  0  0  0  0  0  0
   -3.0392   -2.3280    0.0000 C   0  0  1  0  0  0  0  0  0  0  0  0
   -3.4414   -3.2329    0.0000 O   0  0  0  0  0  0  0  0  0  0  0  0
   -3.5491   -1.4432    0.0000 C   0  0  0  0  0  0  0  0  0  0  0  0
   -4.5222   -1.2571    0.0000 C   0  0  0  0  0  0  0  0  0  0  0  0
   -4.8229   -0.2895    0.0000 C   0  0  0  0  0  0  0  0  0  0  0  0
   -4.1837    0.4591    0.0000 C   0  0  0  0  0  0  0  0  0  0  0  0
   -3.2132    0.2361    0.0000 C   0  0  0  0  0  0  0  0  0  0  0  0
   -2.5354    0.9899    0.0000 C   0  0  0  0  0  0  0  0  0  0  0  0
   -2.8452    1.9396    0.0000 O   0  0  0  0  0  0  0  0  0  0  0  0
   -1.5524    0.7816    0.0000 C   0  0  0  0  0  0  0  0  0  0  0  0
   -0.8732    1.5338    0.0000 C   0  0  0  0  0  0  0  0  0  0  0  0
   -1.2086    2.4700    0.0000 C   0  0  0  0  0  0  0  0  0  0  0  0
   -0.5230    3.2329    0.0000 C   0  0  0  0  0  0  0  0  0  0  0  0
    0.4435    2.9989    0.0000 C   0  0  0  0  0  0  0  0  0  0  0  0
    0.7795    2.0643    0.0000 C   0  0  0  0  0  0  0  0  0  0  0  0
    0.0941    1.3005    0.0000 C   0  0  0  0  0  0  0  0  0  0  0  0
    0.4026    0.3594    0.0000 O   0  0  0  0  0  0  0  0  0  0  0  0
    1.3791    0.1487    0.0000 C   0  0  0  0  0  0  0  0  0  0  0  0
   -2.8795   -0.7199    0.0000 C   0  0  0  0  0  0  0  0  0  0  0  0
    2.3529   -0.6129    0.0000 C   0  0  0  0  0  0  0  0  0  0  0  0
    2.3661    0.3946    0.0000 C   0  0  0  0  0  0  0  0  0  0  0  0
    3.2199    0.9082    0.0000 C   0  0  0  0  0  0  0  0  0  0  0  0
    4.0732    0.3986    0.0000 C   0  0  0  0  0  0  0  0  0  0  0  0
    4.0898   -0.6089    0.0000 C   0  0  0  0  0  0  0  0  0  0  0  0
    4.9473   -1.1011    0.0000 O   0  0  0  0  0  0  0  0  0  0  0  0
    5.8114   -0.5995    0.0000 C   0  0  0  0  0  0  0  0  0  0  0  0
    3.2211   -1.0965    0.0000 C   0  0  0  0  0  0  0  0  0  0  0  0
   -5.8114   -0.0859    0.0000 F   0  0  0  0  0  0  0  0  0  0  0  0
  2  1  1  6  0  0  0
  2  3  1  1  0  0  0
  2  5  1  0  0  0  0
  2 30  1  0  0  0  0
  3  4  1  0  0  0  0
  5  6  1  0  0  0  0
  6  7  2  0  0  0  0
  6  8  1  0  0  0  0
  9  8  1  1  0  0  0
  9 10  1  0  0  0  0
  9 29  1  0  0  0  0
 10 11  1  0  0  0  0
 11 12  1  1  0  0  0
 11 13  1  0  0  0  0
 13 14  1  0  0  0  0
 13 29  2  0  0  0  0
 14 15  2  0  0  0  0
 15 16  1  0  0  0  0
 15 38  1  0  0  0  0
 16 17  2  0  0  0  0
 17 18  1  0  0  0  0
 17 29  1  0  0  0  0
 18 19  2  0  0  0  0
 18 20  1  0  0  0  0
 20 21  1  0  0  0  0
 21 22  1  0  0  0  0
 21 26  2  0  0  0  0
 22 23  2  0  0  0  0
 23 24  1  0  0  0  0
 24 25  2  0  0  0  0
 25 26  1  0  0  0  0
 26 27  1  0  0  0  0
 27 28  1  0  0  0  0
 30 31  1  0  0  0  0
 30 37  2  0  0  0  0
 31 32  2  0  0  0  0
 32 33  1  0  0  0  0
 33 34  2  0  0  0  0
 34 35  1  0  0  0  0
 34 37  1  0  0  0  0
 35 36  1  0  0  0  0
M  END
>  <ID> (INSCoV-040)
INSCoV-040

>  <HBA> (INSCoV-040)
6

>  <HBD> (INSCoV-040)
4

>  <MCE-18> (INSCoV-040)
85.26

>  <nRot> (INSCoV-040)
9

>  <TopoPSA> (INSCoV-040)
117.12

>  <chembl_closest> (INSCoV-040)
CHEMBL3652531

>  <chembl_max_sim> (INSCoV-040)
0,726589

>  <nSC> (INSCoV-040)
3

>  <nAR> (INSCoV-040)
3

>  <MW> (INSCoV-040)
522.22

$$$$

  -ISIS-  -- StrEd -- 

 38 39  0  0  0  0  0  0  0  0999 V2000
   -3.0191   -4.0061    0.0000 C   0  0  0  0  0  0  0  0  0  0  0  0
   -2.1551   -3.5029    0.0000 O   0  0  0  0  0  0  0  0  0  0  0  0
   -2.1586   -2.5028    0.0000 C   0  0  0  0  0  0  0  0  0  0  0  0
   -3.0266   -2.0060    0.0000 C   0  0  0  0  0  0  0  0  0  0  0  0
   -3.0305   -1.0060    0.0000 C   0  0  0  0  0  0  0  0  0  0  0  0
   -3.8979   -0.5090    0.0000 O   0  0  0  0  0  0  0  0  0  0  0  0
   -4.7624   -1.0123    0.0000 C   0  0  0  0  0  0  0  0  0  0  0  0
   -5.6305   -0.5157    0.0000 C   0  0  0  0  0  0  0  0  0  0  0  0
   -6.4944   -1.0182    0.0000 N   0  0  0  0  0  0  0  0  0  0  0  0
   -5.6339    0.4844    0.0000 O   0  0  0  0  0  0  0  0  0  0  0  0
   -2.1661   -0.5031    0.0000 C   0  0  0  0  0  0  0  0  0  0  0  0
   -1.2985   -1.0001    0.0000 C   0  0  0  0  0  0  0  0  0  0  0  0
   -0.4339   -0.4968    0.0000 C   0  0  2  0  0  0  0  0  0  0  0  0
    0.4339   -0.9936    0.0000 N   0  0  0  0  0  0  0  0  0  0  0  0
    1.2985   -0.4903    0.0000 C   0  0  0  0  0  0  0  0  0  0  0  0
    1.2946    0.5096    0.0000 O   0  0  0  0  0  0  0  0  0  0  0  0
    2.1661   -0.9872    0.0000 C   0  0  2  0  0  0  0  0  0  0  0  0
    3.0305   -0.4844    0.0000 C   0  0  0  0  0  0  0  0  0  0  0  0
    3.0270    0.5157    0.0000 O   0  0  0  0  0  0  0  0  0  0  0  0
    3.8979   -0.9813    0.0000 N   0  0  0  0  0  0  0  0  0  0  0  0
    4.7624   -0.4782    0.0000 C   0  0  0  0  0  0  0  0  0  0  0  0
    5.6305   -0.9750    0.0000 C   0  0  0  0  0  0  0  0  0  0  0  0
    5.6339   -1.9749    0.0000 O   0  0  0  0  0  0  0  0  0  0  0  0
    6.4944   -0.4717    0.0000 O   0  0  0  0  0  0  0  0  0  0  0  0
    2.1700   -1.9873    0.0000 C   0  0  0  0  0  0  0  0  0  0  0  0
    1.1698   -1.9912    0.0000 F   0  0  0  0  0  0  0  0  0  0  0  0
    1.6725   -2.8553    0.0000 F   0  0  0  0  0  0  0  0  0  0  0  0
    3.0374   -2.4845    0.0000 F   0  0  0  0  0  0  0  0  0  0  0  0
   -0.4374    0.5031    0.0000 C   0  0  0  0  0  0  0  0  0  0  0  0
   -1.3054    1.0001    0.0000 C   0  0  0  0  0  0  0  0  0  0  0  0
   -1.3088    2.0007    0.0000 C   0  0  0  0  0  0  0  0  0  0  0  0
   -0.4449    2.5034    0.0000 C   0  0  0  0  0  0  0  0  0  0  0  0
   -0.4483    3.5033    0.0000 O   0  0  0  0  0  0  0  0  0  0  0  0
    0.4156    4.0061    0.0000 C   0  0  0  0  0  0  0  0  0  0  0  0
    0.4232    2.0066    0.0000 C   0  0  0  0  0  0  0  0  0  0  0  0
    0.4266    1.0064    0.0000 C   0  0  0  0  0  0  0  0  0  0  0  0
   -1.2946   -1.9997    0.0000 C   0  0  0  0  0  0  0  0  0  0  0  0
   -2.1769    2.4969    0.0000 C   0  0  0  0  0  0  0  0  0  0  0  0
  1  2  1  0  0  0  0
  2  3  1  0  0  0  0
  3  4  2  0  0  0  0
  3 37  1  0  0  0  0
  4  5  1  0  0  0  0
  5  6  1  0  0  0  0
  5 11  2  0  0  0  0
  6  7  1  0  0  0  0
  7  8  1  0  0  0  0
  8  9  1  0  0  0  0
  8 10  2  0  0  0  0
 11 12  1  0  0  0  0
 12 13  1  0  0  0  0
 12 37  2  0  0  0  0
 13 14  1  1  0  0  0
 13 29  1  0  0  0  0
 14 15  1  0  0  0  0
 15 16  2  0  0  0  0
 15 17  1  0  0  0  0
 17 18  1  0  0  0  0
 17 25  1  6  0  0  0
 18 19  2  0  0  0  0
 18 20  1  0  0  0  0
 20 21  1  0  0  0  0
 21 22  1  0  0  0  0
 22 23  2  0  0  0  0
 22 24  1  0  0  0  0
 25 26  1  0  0  0  0
 25 27  1  0  0  0  0
 25 28  1  0  0  0  0
 29 30  1  0  0  0  0
 29 36  2  0  0  0  0
 30 31  2  0  0  0  0
 31 32  1  0  0  0  0
 31 38  1  0  0  0  0
 32 33  1  0  0  0  0
 32 35  2  0  0  0  0
 33 34  1  0  0  0  0
 35 36  1  0  0  0  0
M  END
>  <ID> (INSCoV-041)
INSCoV-041

>  <HBA> (INSCoV-041)
8

>  <HBD> (INSCoV-041)
5

>  <MCE-18> (INSCoV-041)
42

>  <nRot> (INSCoV-041)
12

>  <TopoPSA> (INSCoV-041)
166.28

>  <chembl_closest> (INSCoV-041)
CHEMBL3901543

>  <chembl_max_sim> (INSCoV-041)
0,738356

>  <nSC> (INSCoV-041)
2

>  <nAR> (INSCoV-041)
2

>  <MW> (INSCoV-041)
541.17

$$$$

  -ISIS-  -- StrEd -- 

 39 41  0  0  0  0  0  0  0  0999 V2000
   -6.4614    6.0961    0.0000 C   0  0  0  0  0  0  0  0  0  0  0  0
   -5.8775    5.2852    0.0000 C   0  0  0  0  0  0  0  0  0  0  0  0
   -6.2878    4.3740    0.0000 C   0  0  0  0  0  0  0  0  0  0  0  0
   -4.8830    5.3854    0.0000 C   0  0  0  0  0  0  0  0  0  0  0  0
   -4.2981    4.5747    0.0000 N   0  0  0  0  0  0  0  0  0  0  0  0
   -3.3034    4.6764    0.0000 C   0  0  0  0  0  0  0  0  0  0  0  0
   -2.8953    5.5887    0.0000 O   0  0  0  0  0  0  0  0  0  0  0  0
   -2.7225    3.8750    0.0000 C   0  0  0  0  0  0  0  0  0  0  0  0
   -3.1253    2.9563    0.0000 C   0  0  0  0  0  0  0  0  0  0  0  0
   -2.5430    2.1549    0.0000 C   0  0  0  0  0  0  0  0  0  0  0  0
   -1.5451    2.2532    0.0000 C   0  0  0  0  0  0  0  0  0  0  0  0
   -0.9630    1.4486    0.0000 C   0  0  0  0  0  0  0  0  0  0  0  0
   -1.2691    0.4957    0.0000 N   0  0  0  0  0  0  0  0  0  0  0  0
   -0.4636   -0.0975    0.0000 C   0  0  0  0  0  0  0  0  0  0  0  0
   -0.4646   -1.0875    0.0000 C   0  0  0  0  0  0  0  0  0  0  0  0
    0.3996   -1.5903    0.0000 C   0  0  0  0  0  0  0  0  0  0  0  0
    1.2664   -1.0936    0.0000 O   0  0  0  0  0  0  0  0  0  0  0  0
    0.3966   -2.5902    0.0000 N   0  0  0  0  0  0  0  0  0  0  0  0
    1.2610   -3.0928    0.0000 C   0  0  2  0  0  0  0  0  0  0  0  0
    1.2580   -4.0923    0.0000 C   0  0  0  0  0  0  0  0  0  0  0  0
    2.1220   -4.5947    0.0000 C   0  0  1  0  0  0  0  0  0  0  0  0
    2.1191   -5.5942    0.0000 C   0  0  0  0  0  0  0  0  0  0  0  0
    2.9886   -4.0975    0.0000 C   0  0  0  0  0  0  0  0  0  0  0  0
    2.1278   -2.5953    0.0000 C   0  0  0  0  0  0  0  0  0  0  0  0
    2.1302   -1.5962    0.0000 O   0  0  0  0  0  0  0  0  0  0  0  0
    2.9926   -3.0970    0.0000 N   0  0  0  0  0  0  0  0  0  0  0  0
    3.8684   -2.5939    0.0000 C   0  0  0  0  0  0  0  0  0  0  0  0
    3.8419   -1.5984    0.0000 C   0  0  0  0  0  0  0  0  0  0  0  0
    4.7314   -1.0875    0.0000 C   0  0  0  0  0  0  0  0  0  0  0  0
    5.5756   -1.6109    0.0000 C   0  0  0  0  0  0  0  0  0  0  0  0
    6.4505   -1.1075    0.0000 O   0  0  0  0  0  0  0  0  0  0  0  0
    5.6039   -2.6039    0.0000 C   0  0  0  0  0  0  0  0  0  0  0  0
    4.7148   -3.1166    0.0000 C   0  0  0  0  0  0  0  0  0  0  0  0
    0.3465    0.4957    0.0000 N   0  0  0  0  0  0  0  0  0  0  0  0
    0.0412    1.4413    0.0000 O   0  0  0  0  0  0  0  0  0  0  0  0
   -1.1425    3.1721    0.0000 C   0  0  0  0  0  0  0  0  0  0  0  0
   -1.7246    3.9738    0.0000 C   0  0  0  0  0  0  0  0  0  0  0  0
    2.9832   -6.0961    0.0000 O   0  0  0  0  0  0  0  0  0  0  0  0
    6.4614   -3.1005    0.0000 F   0  0  0  0  0  0  0  0  0  0  0  0
  1  2  1  0  0  0  0
  2  3  1  0  0  0  0
  2  4  1  0  0  0  0
  4  5  1  0  0  0  0
  5  6  1  0  0  0  0
  6  7  2  0  0  0  0
  6  8  1  0  0  0  0
  8  9  1  0  0  0  0
  8 37  2  0  0  0  0
  9 10  2  0  0  0  0
 10 11  1  0  0  0  0
 11 12  1  0  0  0  0
 11 36  2  0  0  0  0
 12 13  2  0  0  0  0
 12 35  1  0  0  0  0
 13 14  1  0  0  0  0
 14 15  1  0  0  0  0
 14 34  2  0  0  0  0
 15 16  1  0  0  0  0
 16 17  2  0  0  0  0
 16 18  1  0  0  0  0
 18 19  1  0  0  0  0
 19 20  1  1  0  0  0
 19 24  1  0  0  0  0
 20 21  1  0  0  0  0
 21 22  1  0  0  0  0
 21 23  1  6  0  0  0
 22 38  1  0  0  0  0
 24 25  2  0  0  0  0
 24 26  1  0  0  0  0
 26 27  1  0  0  0  0
 27 28  2  0  0  0  0
 27 33  1  0  0  0  0
 28 29  1  0  0  0  0
 29 30  2  0  0  0  0
 30 31  1  0  0  0  0
 30 32  1  0  0  0  0
 32 33  2  0  0  0  0
 32 39  1  0  0  0  0
 34 35  1  0  0  0  0
 36 37  1  0  0  0  0
M  END
>  <ID> (INSCoV-042)
INSCoV-042

>  <HBA> (INSCoV-042)
8

>  <HBD> (INSCoV-042)
5

>  <MCE-18> (INSCoV-042)
44

>  <nRot> (INSCoV-042)
12

>  <TopoPSA> (INSCoV-042)
166.68

>  <chembl_closest> (INSCoV-042)
CHEMBL1075677

>  <chembl_max_sim> (INSCoV-042)
0,821041

>  <nSC> (INSCoV-042)
2

>  <nAR> (INSCoV-042)
3

>  <MW> (INSCoV-042)
541.23

$$$$

  -ISIS-  -- StrEd -- 

 40 45  0  0  0  0  0  0  0  0999 V2000
   -1.2471   -6.4018    0.0000 N   0  0  0  0  0  0  0  0  0  0  0  0
   -1.1404   -5.4079    0.0000 C   0  0  1  0  0  0  0  0  0  0  0  0
   -0.2738   -4.9094    0.0000 C   0  0  0  0  0  0  0  0  0  0  0  0
   -0.4798   -3.9306    0.0000 C   0  0  0  0  0  0  0  0  0  0  0  0
   -1.4738   -3.8244    0.0000 C   0  0  1  0  0  0  0  0  0  0  0  0
   -1.9722   -2.9573    0.0000 S   0  0  0  0  0  0  0  0  0  0  0  0
   -2.8393   -3.4559    0.0000 O   0  0  0  0  0  0  0  0  0  0  0  0
   -2.4701   -2.0902    0.0000 O   0  0  0  0  0  0  0  0  0  0  0  0
   -1.1051   -2.4590    0.0000 C   0  0  0  0  0  0  0  0  0  0  0  0
   -0.2399   -2.9608    0.0000 C   0  0  0  0  0  0  0  0  0  0  0  0
    0.6272   -2.4629    0.0000 C   0  0  0  0  0  0  0  0  0  0  0  0
    0.6288   -1.4620    0.0000 C   0  0  0  0  0  0  0  0  0  0  0  0
   -0.2364   -0.9611    0.0000 C   0  0  0  0  0  0  0  0  0  0  0  0
   -0.2340    0.0398    0.0000 C   0  0  0  0  0  0  0  0  0  0  0  0
   -1.0992    0.5416    0.0000 C   0  0  0  0  0  0  0  0  0  0  0  0
   -1.0972    1.5411    0.0000 N   0  0  0  0  0  0  0  0  0  0  0  0
   -1.8385    2.2116    0.0000 C   0  0  0  0  0  0  0  0  0  0  0  0
   -1.4306    3.1244    0.0000 C   0  0  0  0  0  0  0  0  0  0  0  0
   -0.4361    3.0178    0.0000 C   0  0  0  0  0  0  0  0  0  0  0  0
    0.2351    3.7600    0.0000 C   0  0  0  0  0  0  0  0  0  0  0  0
   -0.0728    4.7112    0.0000 C   0  0  0  0  0  0  0  0  0  0  0  0
   -1.0500    4.9216    0.0000 C   0  0  0  0  0  0  0  0  0  0  0  0
   -1.3574    5.8729    0.0000 C   0  0  0  0  0  0  0  0  0  0  0  0
   -0.6862    6.6152    0.0000 C   0  0  0  0  0  0  0  0  0  0  0  0
    0.2910    6.4049    0.0000 C   0  0  0  0  0  0  0  0  0  0  0  0
    1.1016    6.9912    0.0000 N   0  0  0  0  0  0  0  0  0  0  0  0
    1.9093    6.4025    0.0000 C   0  0  0  0  0  0  0  0  0  0  0  0
    1.5982    5.4516    0.0000 N   0  0  0  0  0  0  0  0  0  0  0  0
    0.5978    5.4536    0.0000 C   0  0  0  0  0  0  0  0  0  0  0  0
   -0.2305    2.0395    0.0000 C   0  0  0  0  0  0  0  0  0  0  0  0
    0.6347    1.5383    0.0000 C   0  0  0  0  0  0  0  0  0  0  0  0
    1.5022    2.0360    0.0000 O   0  0  0  0  0  0  0  0  0  0  0  0
    0.6331    0.5379    0.0000 N   0  0  0  0  0  0  0  0  0  0  0  0
   -1.1027   -1.4590    0.0000 C   0  0  0  0  0  0  0  0  0  0  0  0
   -1.8828   -4.7374    0.0000 C   0  0  2  0  0  0  0  0  0  0  0  0
   -2.8609   -4.9428    0.0000 C   0  0  0  0  0  0  0  0  0  0  0  0
    1.4920   -2.9641    0.0000 F   0  0  0  0  0  0  0  0  0  0  0  0
    2.8609    6.7085    0.0000 C   0  0  0  0  0  0  0  0  0  0  0  0
   -2.1620   -6.8064    0.0000 H   0  0  0  0  0  0  0  0  0  0  0  0
   -0.4396   -6.9912    0.0000 H   0  0  0  0  0  0  0  0  0  0  0  0
  2  1  1  6  0  0  0
  2  3  1  0  0  0  0
  2 35  1  0  0  0  0
  3  4  1  0  0  0  0
  4  5  1  0  0  0  0
  5  6  1  6  0  0  0
  5 35  1  0  0  0  0
  6  7  2  0  0  0  0
  6  8  2  0  0  0  0
  6  9  1  0  0  0  0
  9 10  2  0  0  0  0
  9 34  1  0  0  0  0
 10 11  1  0  0  0  0
 11 12  2  0  0  0  0
 11 37  1  0  0  0  0
 12 13  1  0  0  0  0
 13 14  1  0  0  0  0
 13 34  2  0  0  0  0
 14 15  2  0  0  0  0
 14 33  1  0  0  0  0
 15 16  1  0  0  0  0
 16 17  1  0  0  0  0
 16 30  1  0  0  0  0
 17 18  2  0  0  0  0
 18 19  1  0  0  0  0
 19 20  1  0  0  0  0
 19 30  2  0  0  0  0
 20 21  1  0  0  0  0
 21 22  1  0  0  0  0
 21 29  2  0  0  0  0
 22 23  2  0  0  0  0
 23 24  1  0  0  0  0
 24 25  2  0  0  0  0
 25 26  1  0  0  0  0
 25 29  1  0  0  0  0
 26 27  1  0  0  0  0
 27 28  2  0  0  0  0
 27 38  1  0  0  0  0
 28 29  1  0  0  0  0
 30 31  1  0  0  0  0
 31 32  2  0  0  0  0
 31 33  1  0  0  0  0
 35 36  1  1  0  0  0
  1 39  1  0  0  0  0
  1 40  1  0  0  0  0
M  END
>  <ID> (INSCoV-043)
INSCoV-043

>  <HBA> (INSCoV-043)
4

>  <HBD> (INSCoV-043)
5

>  <MCE-18> (INSCoV-043)
118

>  <nRot> (INSCoV-043)
5

>  <TopoPSA> (INSCoV-043)
134.49

>  <chembl_closest> (INSCoV-043)
CHEMBL4083482

>  <chembl_max_sim> (INSCoV-043)
0,786812

>  <nSC> (INSCoV-043)
3

>  <nAR> (INSCoV-043)
4

>  <MW> (INSCoV-043)
533.19

$$$$

  -ISIS-  -- StrEd -- 

 39 43  0  0  0  0  0  0  0  0999 V2000
    3.7765   -1.7991    0.0000 C   0  0  0  0  0  0  0  0  0  0  0  0
    4.0442   -0.8475    0.0000 C   0  0  0  0  0  0  0  0  0  0  0  0
    5.0056   -0.5775    0.0000 C   0  0  0  0  0  0  0  0  0  0  0  0
    5.3006    0.3807    0.0000 C   0  0  0  0  0  0  0  0  0  0  0  0
    4.5883    1.0762    0.0000 C   0  0  0  0  0  0  0  0  0  0  0  0
    4.8607    2.0485    0.0000 C   0  0  0  0  0  0  0  0  0  0  0  0
    4.1644    2.7637    0.0000 O   0  0  0  0  0  0  0  0  0  0  0  0
    5.8366    2.2932    0.0000 N   0  0  0  0  0  0  0  0  0  0  0  0
    6.5234    1.5697    0.0000 C   0  0  0  0  0  0  0  0  0  0  0  0
    7.4973    1.8108    0.0000 C   0  0  0  0  0  0  0  0  0  0  0  0
    7.7685    2.7748    0.0000 O   0  0  0  0  0  0  0  0  0  0  0  0
    7.0822    3.4900    0.0000 C   0  0  0  0  0  0  0  0  0  0  0  0
    6.1078    3.2560    0.0000 C   0  0  0  0  0  0  0  0  0  0  0  0
    3.6155    0.8516    0.0000 C   0  0  0  0  0  0  0  0  0  0  0  0
    3.3667   -0.1187    0.0000 C   0  0  0  0  0  0  0  0  0  0  0  0
    2.3828   -0.3559    0.0000 C   0  0  0  0  0  0  0  0  0  0  0  0
    2.0142   -1.2879    0.0000 N   0  0  0  0  0  0  0  0  0  0  0  0
    1.0179   -1.2172    0.0000 C   0  0  0  0  0  0  0  0  0  0  0  0
    0.3763   -1.9870    0.0000 C   0  0  0  0  0  0  0  0  0  0  0  0
   -0.5904   -1.8169    0.0000 N   0  0  0  0  0  0  0  0  0  0  0  0
   -1.2561   -2.5626    0.0000 C   0  0  0  0  0  0  0  0  0  0  0  0
   -2.2441   -2.4228    0.0000 C   0  0  0  0  0  0  0  0  0  0  0  0
   -2.5573   -1.4743    0.0000 C   0  0  0  0  0  0  0  0  0  0  0  0
   -3.2159   -0.7130    0.0000 C   0  0  0  0  0  0  0  0  0  0  0  0
   -2.8821    0.2284    0.0000 O   0  0  0  0  0  0  0  0  0  0  0  0
   -3.4327   -1.9725    0.0000 C   0  0  0  0  0  0  0  0  0  0  0  0
   -4.2972   -1.4753    0.0000 C   0  0  0  0  0  0  0  0  0  0  0  0
   -5.1532   -1.9754    0.0000 C   0  0  0  0  0  0  0  0  0  0  0  0
   -6.0405   -1.4636    0.0000 C   0  0  0  0  0  0  0  0  0  0  0  0
   -6.8870   -1.9853    0.0000 C   0  0  0  0  0  0  0  0  0  0  0  0
   -6.9125   -2.9800    0.0000 C   0  0  0  0  0  0  0  0  0  0  0  0
   -7.7685   -3.4788    0.0000 O   0  0  0  0  0  0  0  0  0  0  0  0
   -6.0245   -3.4900    0.0000 C   0  0  0  0  0  0  0  0  0  0  0  0
   -5.1809   -2.9676    0.0000 C   0  0  0  0  0  0  0  0  0  0  0  0
   -1.9412   -0.6861    0.0000 C   0  0  0  0  0  0  0  0  0  0  0  0
   -0.9643   -0.8900    0.0000 C   0  0  0  0  0  0  0  0  0  0  0  0
    0.7698   -0.2486    0.0000 N   0  0  0  0  0  0  0  0  0  0  0  0
    1.6197    0.2809    0.0000 O   0  0  0  0  0  0  0  0  0  0  0  0
   -7.7615   -1.4826    0.0000 F   0  0  0  0  0  0  0  0  0  0  0  0
  1  2  1  0  0  0  0
  2  3  1  0  0  0  0
  2 15  2  0  0  0  0
  3  4  2  0  0  0  0
  4  5  1  0  0  0  0
  5  6  1  0  0  0  0
  5 14  2  0  0  0  0
  6  7  2  0  0  0  0
  6  8  1  0  0  0  0
  8  9  1  0  0  0  0
  8 13  1  0  0  0  0
  9 10  1  0  0  0  0
 10 11  1  0  0  0  0
 11 12  1  0  0  0  0
 12 13  1  0  0  0  0
 14 15  1  0  0  0  0
 15 16  1  0  0  0  0
 16 17  2  0  0  0  0
 16 38  1  0  0  0  0
 17 18  1  0  0  0  0
 18 19  1  0  0  0  0
 18 37  2  0  0  0  0
 20 19  1  0  0  0  0
 20 21  1  0  0  0  0
 20 36  1  0  0  0  0
 21 22  1  0  0  0  0
 22 23  1  0  0  0  0
 23 24  1  0  0  0  0
 23 26  1  0  0  0  0
 23 35  1  0  0  0  0
 24 25  1  0  0  0  0
 26 27  1  0  0  0  0
 27 28  1  0  0  0  0
 28 29  1  0  0  0  0
 28 34  2  0  0  0  0
 29 30  2  0  0  0  0
 30 31  1  0  0  0  0
 30 39  1  0  0  0  0
 31 32  1  0  0  0  0
 31 33  2  0  0  0  0
 33 34  1  0  0  0  0
 35 36  1  0  0  0  0
 37 38  1  0  0  0  0
M  END
>  <ID> (INSCoV-044)
INSCoV-044

>  <HBA> (INSCoV-044)
7

>  <HBD> (INSCoV-044)
3

>  <MCE-18> (INSCoV-044)
70.14

>  <nRot> (INSCoV-044)
8

>  <TopoPSA> (INSCoV-044)
112.16

>  <chembl_closest> (INSCoV-044)
CHEMBL1587050

>  <chembl_max_sim> (INSCoV-044)
0,774755

>  <nSC> (INSCoV-044)
0

>  <nAR> (INSCoV-044)
3

>  <MW> (INSCoV-044)
538.26

$$$$

  -ISIS-  -- StrEd -- 

 38 42  0  0  0  0  0  0  0  0999 V2000
    0.8039    4.5015    0.0000 O   0  0  0  0  0  0  0  0  0  0  0  0
   -0.0621    3.9997    0.0000 C   0  0  0  0  0  0  0  0  0  0  0  0
   -0.0590    3.0002    0.0000 N   0  0  0  0  0  0  0  0  0  0  0  0
    0.8076    2.5024    0.0000 C   0  0  2  0  0  0  0  0  0  0  0  0
    1.6720    3.0041    0.0000 C   0  0  0  0  0  0  0  0  0  0  0  0
    2.5393    2.5048    0.0000 C   0  0  0  0  0  0  0  0  0  0  0  0
    2.5417    1.5052    0.0000 C   0  0  0  0  0  0  0  0  0  0  0  0
    1.6764    1.0039    0.0000 C   0  0  1  0  0  0  0  0  0  0  0  0
    0.8118    0.5024    0.0000 C   0  0  0  0  0  0  0  0  0  0  0  0
    0.8131   -0.4982    0.0000 C   0  0  0  0  0  0  0  0  0  0  0  0
    1.6803   -0.9965    0.0000 C   0  0  1  0  0  0  0  0  0  0  0  0
    1.6830   -1.9956    0.0000 N   0  0  0  0  0  0  0  0  0  0  0  0
    2.5496   -2.4939    0.0000 C   0  0  0  0  0  0  0  0  0  0  0  0
    2.5516   -3.4945    0.0000 C   0  0  0  0  0  0  0  0  0  0  0  0
    1.6867   -3.9962    0.0000 N   0  0  0  0  0  0  0  0  0  0  0  0
    1.6882   -4.9954    0.0000 C   0  0  0  0  0  0  0  0  0  0  0  0
    2.5555   -5.4947    0.0000 C   0  0  0  0  0  0  0  0  0  0  0  0
    2.5579   -6.4942    0.0000 C   0  0  0  0  0  0  0  0  0  0  0  0
    1.6922   -6.9960    0.0000 C   0  0  0  0  0  0  0  0  0  0  0  0
    0.8253   -6.4977    0.0000 C   0  0  0  0  0  0  0  0  0  0  0  0
    0.8236   -5.4975    0.0000 C   0  0  0  0  0  0  0  0  0  0  0  0
   -0.0433   -4.9993    0.0000 Cl  0  0  0  0  0  0  0  0  0  0  0  0
    0.8194   -3.4980    0.0000 C   0  0  0  0  0  0  0  0  0  0  0  0
    0.8170   -2.4976    0.0000 C   0  0  0  0  0  0  0  0  0  0  0  0
    2.5457   -0.4950    0.0000 S   0  0  0  0  0  0  0  0  0  0  0  0
    2.8896   -1.4335    0.0000 O   0  0  0  0  0  0  0  0  0  0  0  0
    3.5295   -0.3188    0.0000 O   0  0  0  0  0  0  0  0  0  0  0  0
    2.5433    0.5057    0.0000 N   0  0  0  0  0  0  0  0  0  0  0  0
    0.8091    1.5017    0.0000 C   0  0  0  0  0  0  0  0  0  0  0  0
   -0.9287    4.4980    0.0000 C   0  0  0  0  0  0  0  0  0  0  0  0
   -0.9302    5.4986    0.0000 C   0  0  0  0  0  0  0  0  0  0  0  0
   -1.7980    5.9964    0.0000 C   0  0  0  0  0  0  0  0  0  0  0  0
   -1.7999    6.9960    0.0000 O   0  0  0  0  0  0  0  0  0  0  0  0
   -2.6628    5.4951    0.0000 C   0  0  0  0  0  0  0  0  0  0  0  0
   -3.5295    5.9925    0.0000 O   0  0  0  0  0  0  0  0  0  0  0  0
   -2.6607    4.4951    0.0000 C   0  0  0  0  0  0  0  0  0  0  0  0
   -3.5251    3.9934    0.0000 F   0  0  0  0  0  0  0  0  0  0  0  0
   -1.7934    3.9962    0.0000 C   0  0  0  0  0  0  0  0  0  0  0  0
  1  2  2  0  0  0  0
  2  3  1  0  0  0  0
  2 30  1  0  0  0  0
  4  3  1  6  0  0  0
  4  5  1  0  0  0  0
  4 29  1  0  0  0  0
  5  6  1  0  0  0  0
  6  7  1  0  0  0  0
  8  7  1  6  0  0  0
  8  9  1  0  0  0  0
  8 28  1  0  0  0  0
  8 29  1  0  0  0  0
  9 10  1  0  0  0  0
 10 11  1  0  0  0  0
 11 12  1  6  0  0  0
 11 25  1  0  0  0  0
 12 13  1  0  0  0  0
 12 24  1  0  0  0  0
 13 14  1  0  0  0  0
 14 15  1  0  0  0  0
 15 16  1  0  0  0  0
 15 23  1  0  0  0  0
 16 17  1  0  0  0  0
 16 21  2  0  0  0  0
 17 18  2  0  0  0  0
 18 19  1  0  0  0  0
 19 20  2  0  0  0  0
 20 21  1  0  0  0  0
 21 22  1  0  0  0  0
 23 24  1  0  0  0  0
 25 26  2  0  0  0  0
 25 27  2  0  0  0  0
 25 28  1  0  0  0  0
 30 31  2  0  0  0  0
 30 38  1  0  0  0  0
 31 32  1  0  0  0  0
 32 33  1  0  0  0  0
 32 34  2  0  0  0  0
 34 35  1  0  0  0  0
 34 36  1  0  0  0  0
 36 37  1  0  0  0  0
 36 38  2  0  0  0  0
M  END
>  <ID> (INSCoV-045)
INSCoV-045

>  <HBA> (INSCoV-045)
5

>  <HBD> (INSCoV-045)
5

>  <MCE-18> (INSCoV-045)
149.33

>  <nRot> (INSCoV-045)
4

>  <TopoPSA> (INSCoV-045)
130.59

>  <chembl_closest> (INSCoV-045)
CHEMBL3632715

>  <chembl_max_sim> (INSCoV-045)
0,742814

>  <nSC> (INSCoV-045)
3

>  <nAR> (INSCoV-045)
2

>  <MW> (INSCoV-045)
566.18

$$$$

  -ISIS-  -- StrEd -- 

 45 49  0  0  0  0  0  0  0  0999 V2000
   -6.4999    0.9753    0.0000 C   0  0  0  0  0  0  0  0  0  0  0  0
   -5.6318    0.4782    0.0000 C   0  0  0  0  0  0  0  0  0  0  0  0
   -5.6281   -0.5217    0.0000 O   0  0  0  0  0  0  0  0  0  0  0  0
   -4.7675    0.9815    0.0000 N   0  0  0  0  0  0  0  0  0  0  0  0
   -3.8997    0.4844    0.0000 C   0  0  2  0  0  0  0  0  0  0  0  0
   -3.8962   -0.5157    0.0000 C   0  0  0  0  0  0  0  0  0  0  0  0
   -3.0284   -1.0123    0.0000 C   0  0  0  0  0  0  0  0  0  0  0  0
   -2.1641   -0.5095    0.0000 C   0  0  0  0  0  0  0  0  0  0  0  0
   -1.2963   -1.0063    0.0000 C   0  0  0  0  0  0  0  0  0  0  0  0
   -1.2926   -2.0062    0.0000 C   0  0  0  0  0  0  0  0  0  0  0  0
   -0.4250   -2.5031    0.0000 C   0  0  0  0  0  0  0  0  0  0  0  0
   -2.1570   -2.5093    0.0000 C   0  0  0  0  0  0  0  0  0  0  0  0
   -3.0248   -2.0124    0.0000 C   0  0  0  0  0  0  0  0  0  0  0  0
   -3.8889   -2.5155    0.0000 F   0  0  0  0  0  0  0  0  0  0  0  0
   -3.0356    0.9877    0.0000 C   0  0  0  0  0  0  0  0  0  0  0  0
   -3.0392    1.9876    0.0000 O   0  0  0  0  0  0  0  0  0  0  0  0
   -2.1678    0.4906    0.0000 N   0  0  0  0  0  0  0  0  0  0  0  0
   -1.3037    0.9937    0.0000 C   0  0  0  0  0  0  0  0  0  0  0  0
   -0.4356    0.4968    0.0000 C   0  0  0  0  0  0  0  0  0  0  0  0
    0.4285    1.0001    0.0000 C   0  0  0  0  0  0  0  0  0  0  0  0
    1.2963    0.5033    0.0000 C   0  0  0  0  0  0  0  0  0  0  0  0
    1.3000   -0.4968    0.0000 N   0  0  0  0  0  0  0  0  0  0  0  0
    2.1678   -0.9937    0.0000 N   0  0  0  0  0  0  0  0  0  0  0  0
    3.0319   -0.4909    0.0000 S   0  0  0  0  0  0  0  0  0  0  0  0
    4.0161   -0.3134    0.0000 O   0  0  0  0  0  0  0  0  0  0  0  0
    3.3773   -1.4293    0.0000 O   0  0  0  0  0  0  0  0  0  0  0  0
    3.0284    0.5095    0.0000 C   0  0  0  0  0  0  0  0  0  0  0  0
    2.1606    1.0063    0.0000 C   0  0  0  0  0  0  0  0  0  0  0  0
    2.1570    2.0062    0.0000 C   0  0  0  0  0  0  0  0  0  0  0  0
    3.0211    2.5093    0.0000 C   0  0  0  0  0  0  0  0  0  0  0  0
    3.8889    2.0124    0.0000 C   0  0  0  0  0  0  0  0  0  0  0  0
    4.7532    2.5155    0.0000 O   0  0  0  0  0  0  0  0  0  0  0  0
    3.8926    1.0123    0.0000 N   0  0  0  0  0  0  0  0  0  0  0  0
    4.7603    0.5157    0.0000 C   0  0  0  0  0  0  0  0  0  0  0  0
    4.7640   -0.4844    0.0000 C   0  0  0  0  0  0  0  0  0  0  0  0
    5.6318   -0.9815    0.0000 C   0  0  0  0  0  0  0  0  0  0  0  0
    6.4962   -0.4782    0.0000 C   0  0  0  0  0  0  0  0  0  0  0  0
    7.3640   -0.9753    0.0000 F   0  0  0  0  0  0  0  0  0  0  0  0
    6.4923    0.5217    0.0000 C   0  0  0  0  0  0  0  0  0  0  0  0
    5.6245    1.0185    0.0000 C   0  0  0  0  0  0  0  0  0  0  0  0
    0.4250    2.0000    0.0000 C   0  0  0  0  0  0  0  0  0  0  0  0
   -0.4430    2.4968    0.0000 C   0  0  0  0  0  0  0  0  0  0  0  0
   -1.3071    1.9938    0.0000 C   0  0  0  0  0  0  0  0  0  0  0  0
   -2.1749    2.4906    0.0000 C   0  0  0  0  0  0  0  0  0  0  0  0
   -7.3640    0.4720    0.0000 C   0  0  0  0  0  0  0  0  0  0  0  0
  1  2  1  0  0  0  0
  1 45  1  0  0  0  0
  2  3  2  0  0  0  0
  2  4  1  0  0  0  0
  5  4  1  1  0  0  0
  5  6  1  0  0  0  0
  5 15  1  0  0  0  0
  6  7  1  0  0  0  0
  7  8  1  0  0  0  0
  7 13  2  0  0  0  0
  8  9  2  0  0  0  0
  9 10  1  0  0  0  0
 10 11  1  0  0  0  0
 10 12  2  0  0  0  0
 12 13  1  0  0  0  0
 13 14  1  0  0  0  0
 15 16  2  0  0  0  0
 15 17  1  0  0  0  0
 17 18  1  0  0  0  0
 18 19  2  0  0  0  0
 18 43  1  0  0  0  0
 19 20  1  0  0  0  0
 20 21  1  0  0  0  0
 20 41  2  0  0  0  0
 21 22  2  0  0  0  0
 21 28  1  0  0  0  0
 22 23  1  0  0  0  0
 23 24  1  0  0  0  0
 24 25  2  0  0  0  0
 24 26  2  0  0  0  0
 24 27  1  0  0  0  0
 27 28  2  0  0  0  0
 27 33  1  0  0  0  0
 28 29  1  0  0  0  0
 29 30  1  0  0  0  0
 30 31  1  0  0  0  0
 31 32  2  0  0  0  0
 31 33  1  0  0  0  0
 33 34  1  0  0  0  0
 34 35  1  0  0  0  0
 34 40  2  0  0  0  0
 35 36  2  0  0  0  0
 36 37  1  0  0  0  0
 37 38  1  0  0  0  0
 37 39  2  0  0  0  0
 39 40  1  0  0  0  0
 41 42  1  0  0  0  0
 42 43  2  0  0  0  0
 43 44  1  0  0  0  0
M  END
>  <ID> (INSCoV-046)
INSCoV-046

>  <HBA> (INSCoV-046)
6

>  <HBD> (INSCoV-046)
3

>  <MCE-18> (INSCoV-046)
105.4

>  <nRot> (INSCoV-046)
8

>  <TopoPSA> (INSCoV-046)
145.42

>  <chembl_closest> (INSCoV-046)
CHEMBL1346036

>  <chembl_max_sim> (INSCoV-046)
0,755671

>  <nSC> (INSCoV-046)
1

>  <nAR> (INSCoV-046)
3

>  <MW> (INSCoV-046)
635.2

$$$$

  -ISIS-  -- StrEd -- 

 35 38  0  0  0  0  0  0  0  0999 V2000
    2.8532    3.4376    0.0000 C   0  0  0  0  0  0  0  0  0  0  0  0
    3.8364    3.3934    0.0000 C   0  0  0  0  0  0  0  0  0  0  0  0
    4.2787    2.4767    0.0000 C   0  0  0  0  0  0  0  0  0  0  0  0
    3.7429    1.6294    0.0000 C   0  0  0  0  0  0  0  0  0  0  0  0
    4.1912    0.7496    0.0000 C   0  0  0  0  0  0  0  0  0  0  0  0
    3.3032    0.2949    0.0000 F   0  0  0  0  0  0  0  0  0  0  0  0
    4.1424   -0.2473    0.0000 F   0  0  0  0  0  0  0  0  0  0  0  0
    5.1894    0.7011    0.0000 O   0  0  0  0  0  0  0  0  0  0  0  0
    5.6471   -0.1856    0.0000 C   0  0  0  0  0  0  0  0  0  0  0  0
    2.7671    1.6984    0.0000 C   0  0  0  0  0  0  0  0  0  0  0  0
    2.0526    1.0063    0.0000 S   0  0  0  0  0  0  0  0  0  0  0  0
    1.1479    1.4606    0.0000 C   0  0  0  0  0  0  0  0  0  0  0  0
    0.2655    1.0046    0.0000 N   0  0  0  0  0  0  0  0  0  0  0  0
   -0.5728    1.5403    0.0000 C   0  0  0  0  0  0  0  0  0  0  0  0
   -0.5265    2.5376    0.0000 O   0  0  0  0  0  0  0  0  0  0  0  0
   -1.4531    1.0873    0.0000 C   0  0  0  0  0  0  0  0  0  0  0  0
   -1.6159    0.0981    0.0000 C   0  0  0  0  0  0  0  0  0  0  0  0
   -2.5965   -0.0566    0.0000 C   0  0  0  0  0  0  0  0  0  0  0  0
   -3.0654   -0.9467    0.0000 C   0  0  0  0  0  0  0  0  0  0  0  0
   -3.0559    0.8353    0.0000 N   0  0  0  0  0  0  0  0  0  0  0  0
   -4.0318    0.9896    0.0000 C   0  0  0  0  0  0  0  0  0  0  0  0
   -4.6609    0.2139    0.0000 C   0  0  0  0  0  0  0  0  0  0  0  0
   -4.3897    1.9217    0.0000 O   0  0  0  0  0  0  0  0  0  0  0  0
   -2.3454    1.5377    0.0000 N   0  0  0  0  0  0  0  0  0  0  0  0
    0.2162   -0.0116    0.0000 C   0  0  2  0  0  0  0  0  0  0  0  0
   -0.6812   -0.4376    0.0000 C   0  0  0  0  0  0  0  0  0  0  0  0
   -0.7335   -1.4619    0.0000 C   0  0  0  0  0  0  0  0  0  0  0  0
    0.1151   -1.9766    0.0000 C   0  0  1  0  0  0  0  0  0  0  0  0
    0.0636   -2.9837    0.0000 C   0  0  0  0  0  0  0  0  0  0  0  0
   -0.8256   -3.4376    0.0000 O   0  0  0  0  0  0  0  0  0  0  0  0
    1.0125   -1.5523    0.0000 C   0  0  0  0  0  0  0  0  0  0  0  0
    1.0661   -0.5276    0.0000 C   0  0  0  0  0  0  0  0  0  0  0  0
    1.3232    2.4544    0.0000 N   0  0  0  0  0  0  0  0  0  0  0  0
    2.2939    2.6074    0.0000 C   0  0  0  0  0  0  0  0  0  0  0  0
   -5.6471    0.3707    0.0000 C   0  0  0  0  0  0  0  0  0  0  0  0
  1  2  1  0  0  0  0
  1 34  2  0  0  0  0
  2  3  2  0  0  0  0
  3  4  1  0  0  0  0
  4  5  1  0  0  0  0
  4 10  2  0  0  0  0
  5  6  1  0  0  0  0
  5  7  1  0  0  0  0
  5  8  1  0  0  0  0
  8  9  1  0  0  0  0
 10 11  1  0  0  0  0
 10 34  1  0  0  0  0
 11 12  1  0  0  0  0
 12 13  1  0  0  0  0
 12 33  2  0  0  0  0
 13 14  1  0  0  0  0
 25 13  1  1  0  0  0
 14 15  2  0  0  0  0
 14 16  1  0  0  0  0
 16 17  1  0  0  0  0
 16 24  2  0  0  0  0
 17 18  2  0  0  0  0
 18 19  1  0  0  0  0
 18 20  1  0  0  0  0
 20 21  1  0  0  0  0
 20 24  1  0  0  0  0
 21 22  1  0  0  0  0
 21 23  2  0  0  0  0
 22 35  1  0  0  0  0
 25 26  1  0  0  0  0
 25 32  1  0  0  0  0
 26 27  1  0  0  0  0
 27 28  1  0  0  0  0
 28 29  1  6  0  0  0
 28 31  1  0  0  0  0
 29 30  1  0  0  0  0
 31 32  1  0  0  0  0
 33 34  1  0  0  0  0
M  END
>  <ID> (INSCoV-047)
INSCoV-047

>  <HBA> (INSCoV-047)
6

>  <HBD> (INSCoV-047)
1

>  <MCE-18> (INSCoV-047)
63

>  <nRot> (INSCoV-047)
7

>  <TopoPSA> (INSCoV-047)
125.79

>  <chembl_closest> (INSCoV-047)
CHEMBL1387393

>  <chembl_max_sim> (INSCoV-047)
0,772229

>  <nSC> (INSCoV-047)
2

>  <nAR> (INSCoV-047)
3

>  <MW> (INSCoV-047)
506.18

$$$$

  -ISIS-  -- StrEd -- 

 41 44  0  0  0  0  0  0  0  0999 V2000
   -5.0024   -1.2572    0.0000 C   0  0  0  0  0  0  0  0  0  0  0  0
   -4.3646   -0.4875    0.0000 C   0  0  0  0  0  0  0  0  0  0  0  0
   -4.7133    0.4495    0.0000 O   0  0  0  0  0  0  0  0  0  0  0  0
   -3.3767   -0.6533    0.0000 N   0  0  0  0  0  0  0  0  0  0  0  0
   -2.7557    0.1189    0.0000 C   0  0  0  0  0  0  0  0  0  0  0  0
   -3.1053    1.0575    0.0000 C   0  0  0  0  0  0  0  0  0  0  0  0
   -2.4787    1.8390    0.0000 C   0  0  0  0  0  0  0  0  0  0  0  0
   -1.4841    1.6789    0.0000 C   0  0  0  0  0  0  0  0  0  0  0  0
   -0.8600    2.4469    0.0000 C   0  0  0  0  0  0  0  0  0  0  0  0
   -1.2071    3.3839    0.0000 O   0  0  0  0  0  0  0  0  0  0  0  0
    0.1295    2.2749    0.0000 N   0  0  0  0  0  0  0  0  0  0  0  0
    0.7665    3.0303    0.0000 C   0  0  1  0  0  0  0  0  0  0  0  0
    1.4187    2.2785    0.0000 C   0  0  0  0  0  0  0  0  0  0  0  0
    1.0844    1.3359    0.0000 O   0  0  0  0  0  0  0  0  0  0  0  0
    2.4000    2.4617    0.0000 N   0  0  0  0  0  0  0  0  0  0  0  0
    3.0618    1.7038    0.0000 C   0  0  0  0  0  0  0  0  0  0  0  0
    2.7194    0.7603    0.0000 C   0  0  0  0  0  0  0  0  0  0  0  0
    3.3795    0.0053    0.0000 C   0  0  0  0  0  0  0  0  0  0  0  0
    4.3452    0.1862    0.0000 C   0  0  0  0  0  0  0  0  0  0  0  0
    5.0060   -0.5744    0.0000 C   0  0  0  0  0  0  0  0  0  0  0  0
    5.9881   -0.3920    0.0000 O   0  0  0  0  0  0  0  0  0  0  0  0
    4.6702   -1.5176    0.0000 N   0  0  0  0  0  0  0  0  0  0  0  0
    5.3159   -2.2798    0.0000 C   0  0  0  0  0  0  0  0  0  0  0  0
    4.9754   -3.2318    0.0000 C   0  0  0  0  0  0  0  0  0  0  0  0
    5.6404   -3.9785    0.0000 C   0  0  0  0  0  0  0  0  0  0  0  0
    5.2830   -4.9158    0.0000 C   0  0  0  0  0  0  0  0  0  0  0  0
    4.3075   -5.1187    0.0000 C   0  0  0  0  0  0  0  0  0  0  0  0
    3.6773   -4.3418    0.0000 C   0  0  0  0  0  0  0  0  0  0  0  0
    3.9914   -3.3895    0.0000 N   0  0  0  0  0  0  0  0  0  0  0  0
    4.6870    1.1294    0.0000 C   0  0  0  0  0  0  0  0  0  0  0  0
    4.0277    1.8844    0.0000 C   0  0  0  0  0  0  0  0  0  0  0  0
    1.6530    3.5499    0.0000 C   0  0  0  0  0  0  0  0  0  0  0  0
    1.6165    4.5426    0.0000 C   0  0  0  0  0  0  0  0  0  0  0  0
    0.7667    5.0595    0.0000 C   0  0  1  0  0  0  0  0  0  0  0  0
    0.7597    6.0507    0.0000 O   0  0  0  0  0  0  0  0  0  0  0  0
   -0.1195    4.5401    0.0000 C   0  0  0  0  0  0  0  0  0  0  0  0
   -0.0832    3.5468    0.0000 C   0  0  0  0  0  0  0  0  0  0  0  0
   -1.1347    0.7405    0.0000 C   0  0  0  0  0  0  0  0  0  0  0  0
   -1.7613   -0.0412    0.0000 C   0  0  0  0  0  0  0  0  0  0  0  0
   -5.9881   -1.0882    0.0000 C   0  0  0  0  0  0  0  0  0  0  0  0
    3.9757   -6.0507    0.0000 F   0  0  0  0  0  0  0  0  0  0  0  0
  1  2  1  0  0  0  0
  1 40  1  0  0  0  0
  2  3  2  0  0  0  0
  2  4  1  0  0  0  0
  4  5  1  0  0  0  0
  5  6  1  0  0  0  0
  5 39  2  0  0  0  0
  6  7  2  0  0  0  0
  7  8  1  0  0  0  0
  8  9  1  0  0  0  0
  8 38  2  0  0  0  0
  9 10  2  0  0  0  0
  9 11  1  0  0  0  0
 12 11  1  6  0  0  0
 12 13  1  1  0  0  0
 12 32  1  0  0  0  0
 12 37  1  0  0  0  0
 13 14  2  0  0  0  0
 13 15  1  0  0  0  0
 15 16  1  0  0  0  0
 16 17  1  0  0  0  0
 16 31  2  0  0  0  0
 17 18  2  0  0  0  0
 18 19  1  0  0  0  0
 19 20  1  0  0  0  0
 19 30  2  0  0  0  0
 20 21  2  0  0  0  0
 20 22  1  0  0  0  0
 22 23  1  0  0  0  0
 23 24  1  0  0  0  0
 24 25  1  0  0  0  0
 24 29  2  0  0  0  0
 25 26  2  0  0  0  0
 26 27  1  0  0  0  0
 27 28  2  0  0  0  0
 27 41  1  0  0  0  0
 28 29  1  0  0  0  0
 30 31  1  0  0  0  0
 32 33  1  0  0  0  0
 33 34  1  0  0  0  0
 34 35  1  6  0  0  0
 34 36  1  0  0  0  0
 36 37  1  0  0  0  0
 38 39  1  0  0  0  0
M  END
>  <ID> (INSCoV-048)
INSCoV-048

>  <HBA> (INSCoV-048)
6

>  <HBD> (INSCoV-048)
5

>  <MCE-18> (INSCoV-048)
60

>  <nRot> (INSCoV-048)
9

>  <TopoPSA> (INSCoV-048)
149.52

>  <chembl_closest> (INSCoV-048)
CHEMBL395150

>  <chembl_max_sim> (INSCoV-048)
0,728996

>  <nSC> (INSCoV-048)
2

>  <nAR> (INSCoV-048)
3

>  <MW> (INSCoV-048)
561.24

$$$$

  -ISIS-  -- StrEd -- 

 36 39  0  0  0  0  0  0  0  0999 V2000
    5.5016   -2.3764    0.0000 C   0  0  0  0  0  0  0  0  0  0  0  0
    4.5350   -2.5909    0.0000 C   0  0  0  0  0  0  0  0  0  0  0  0
    4.1350   -3.5301    0.0000 N   0  0  0  0  0  0  0  0  0  0  0  0
    3.1430   -3.4253    0.0000 N   0  0  0  0  0  0  0  0  0  0  0  0
    2.9026   -2.4501    0.0000 C   0  0  0  0  0  0  0  0  0  0  0  0
    1.9773   -2.0628    0.0000 C   0  0  0  0  0  0  0  0  0  0  0  0
    1.1969   -2.7190    0.0000 C   0  0  0  0  0  0  0  0  0  0  0  0
    0.2541   -2.3423    0.0000 C   0  0  0  0  0  0  0  0  0  0  0  0
    0.0767   -1.3488    0.0000 C   0  0  0  0  0  0  0  0  0  0  0  0
   -0.8691   -0.9991    0.0000 N   0  0  0  0  0  0  0  0  0  0  0  0
   -0.9698   -0.0399    0.0000 C   0  0  0  0  0  0  0  0  0  0  0  0
   -0.2579    0.4088    0.0000 O   0  0  0  0  0  0  0  0  0  0  0  0
   -1.8267    0.4040    0.0000 C   0  0  2  0  0  0  0  0  0  0  0  0
   -2.1700   -0.5223    0.0000 O   0  0  0  0  0  0  0  0  0  0  0  0
   -2.7988    0.6390    0.0000 C   0  0  0  0  0  0  0  0  0  0  0  0
   -2.9177    1.6562    0.0000 N   0  0  0  0  0  0  0  0  0  0  0  0
   -3.7717    2.1516    0.0000 C   0  0  0  0  0  0  0  0  0  0  0  0
   -4.6367    1.6519    0.0000 C   0  0  0  0  0  0  0  0  0  0  0  0
   -3.7714    3.1493    0.0000 O   0  0  0  0  0  0  0  0  0  0  0  0
   -1.9744    2.0494    0.0000 C   0  0  0  0  0  0  0  0  0  0  0  0
   -1.2927    1.3154    0.0000 C   0  0  1  0  0  0  0  0  0  0  0  0
   -0.2220    1.5179    0.0000 C   0  0  0  0  0  0  0  0  0  0  0  0
    0.4824    0.8113    0.0000 O   0  0  0  0  0  0  0  0  0  0  0  0
    0.0856    2.4262    0.0000 N   0  0  0  0  0  0  0  0  0  0  0  0
    1.0601    2.5357    0.0000 C   0  0  0  0  0  0  0  0  0  0  0  0
    1.6293    1.7026    0.0000 C   0  0  0  0  0  0  0  0  0  0  0  0
    2.6238    1.8136    0.0000 C   0  0  0  0  0  0  0  0  0  0  0  0
    3.0570    2.7183    0.0000 C   0  0  0  0  0  0  0  0  0  0  0  0
    4.0406    2.8118    0.0000 N   0  0  0  0  0  0  0  0  0  0  0  0
    4.6200    1.9993    0.0000 C   0  0  0  0  0  0  0  0  0  0  0  0
    2.4590    3.5301    0.0000 C   0  0  0  0  0  0  0  0  0  0  0  0
    1.4608    3.4545    0.0000 C   0  0  0  0  0  0  0  0  0  0  0  0
    0.8797   -0.7173    0.0000 C   0  0  0  0  0  0  0  0  0  0  0  0
    1.8348   -1.0615    0.0000 C   0  0  0  0  0  0  0  0  0  0  0  0
    3.7729   -1.9486    0.0000 O   0  0  0  0  0  0  0  0  0  0  0  0
   -5.5016    2.1492    0.0000 C   0  0  0  0  0  0  0  0  0  0  0  0
  1  2  1  0  0  0  0
  2  3  2  0  0  0  0
  2 35  1  0  0  0  0
  3  4  1  0  0  0  0
  4  5  2  0  0  0  0
  5  6  1  0  0  0  0
  5 35  1  0  0  0  0
  6  7  1  0  0  0  0
  6 34  2  0  0  0  0
  7  8  2  0  0  0  0
  8  9  1  0  0  0  0
  9 10  1  0  0  0  0
  9 33  2  0  0  0  0
 10 11  1  0  0  0  0
 11 12  2  0  0  0  0
 13 11  1  6  0  0  0
 13 14  1  1  0  0  0
 13 15  1  0  0  0  0
 13 21  1  0  0  0  0
 15 16  1  0  0  0  0
 16 17  1  0  0  0  0
 16 20  1  0  0  0  0
 17 18  1  0  0  0  0
 17 19  2  0  0  0  0
 18 36  1  0  0  0  0
 20 21  1  0  0  0  0
 21 22  1  1  0  0  0
 22 23  2  0  0  0  0
 22 24  1  0  0  0  0
 24 25  1  0  0  0  0
 25 26  1  0  0  0  0
 25 32  2  0  0  0  0
 26 27  2  0  0  0  0
 27 28  1  0  0  0  0
 28 29  1  0  0  0  0
 28 31  2  0  0  0  0
 29 30  1  0  0  0  0
 31 32  1  0  0  0  0
 33 34  1  0  0  0  0
M  END
>  <ID> (INSCoV-049)
INSCoV-049

>  <HBA> (INSCoV-049)
7

>  <HBD> (INSCoV-049)
4

>  <MCE-18> (INSCoV-049)
84.3

>  <nRot> (INSCoV-049)
7

>  <TopoPSA> (INSCoV-049)
149.69

>  <chembl_closest> (INSCoV-049)
CHEMBL1778535

>  <chembl_max_sim> (INSCoV-049)
0,759686

>  <nSC> (INSCoV-049)
2

>  <nAR> (INSCoV-049)
3

>  <MW> (INSCoV-049)
492.21

$$$$

  -ISIS-  -- StrEd -- 

 42 46  0  0  0  0  0  0  0  0999 V2000
   -0.0414   -4.4335    0.0000 C   0  0  0  0  0  0  0  0  0  0  0  0
   -0.5455   -3.5695    0.0000 C   0  0  0  0  0  0  0  0  0  0  0  0
   -1.0416   -4.4380    0.0000 C   0  0  0  0  0  0  0  0  0  0  0  0
   -1.4139   -3.0731    0.0000 N   0  0  0  0  0  0  0  0  0  0  0  0
   -2.2774   -3.5772    0.0000 C   0  0  0  0  0  0  0  0  0  0  0  0
   -3.1459   -3.0815    0.0000 C   0  0  0  0  0  0  0  0  0  0  0  0
   -4.0578   -3.4915    0.0000 C   0  0  0  0  0  0  0  0  0  0  0  0
   -4.7298   -2.7515    0.0000 C   0  0  0  0  0  0  0  0  0  0  0  0
   -5.7294   -2.7558    0.0000 C   0  0  0  0  0  0  0  0  0  0  0  0
   -6.2333   -1.8923    0.0000 C   0  0  0  0  0  0  0  0  0  0  0  0
   -5.7371   -1.0238    0.0000 C   0  0  0  0  0  0  0  0  0  0  0  0
   -4.7375   -1.0195    0.0000 C   0  0  0  0  0  0  0  0  0  0  0  0
   -4.2334   -1.8830    0.0000 C   0  0  0  0  0  0  0  0  0  0  0  0
   -3.2546   -2.0867    0.0000 N   0  0  0  0  0  0  0  0  0  0  0  0
    0.3181   -3.0661    0.0000 C   0  0  0  0  0  0  0  0  0  0  0  0
    0.3138   -2.0659    0.0000 O   0  0  0  0  0  0  0  0  0  0  0  0
    1.1865   -3.5616    0.0000 N   0  0  0  0  0  0  0  0  0  0  0  0
    2.0507   -3.0582    0.0000 C   0  0  0  0  0  0  0  0  0  0  0  0
    2.0457   -2.0582    0.0000 C   0  0  0  0  0  0  0  0  0  0  0  0
    2.9104   -1.5548    0.0000 C   0  0  0  0  0  0  0  0  0  0  0  0
    3.7784   -2.0505    0.0000 C   0  0  0  0  0  0  0  0  0  0  0  0
    4.6424   -1.5471    0.0000 C   0  0  0  0  0  0  0  0  0  0  0  0
    5.5104   -2.0433    0.0000 O   0  0  0  0  0  0  0  0  0  0  0  0
    4.6376   -0.5468    0.0000 N   0  0  0  0  0  0  0  0  0  0  0  0
    5.5016   -0.0427    0.0000 C   0  0  0  0  0  0  0  0  0  0  0  0
    6.3696   -0.5391    0.0000 C   0  0  0  0  0  0  0  0  0  0  0  0
    7.2336   -0.0350    0.0000 C   0  0  0  0  0  0  0  0  0  0  0  0
    7.2293    0.9645    0.0000 C   0  0  0  0  0  0  0  0  0  0  0  0
    6.3612    1.4607    0.0000 C   0  0  0  0  0  0  0  0  0  0  0  0
    5.4966    0.9569    0.0000 C   0  0  0  0  0  0  0  0  0  0  0  0
    4.6288    1.4530    0.0000 N   0  0  0  0  0  0  0  0  0  0  0  0
    4.6243    2.4535    0.0000 C   0  0  0  0  0  0  0  0  0  0  0  0
    3.7558    2.9490    0.0000 C   0  0  0  0  0  0  0  0  0  0  0  0
    2.8923    2.4456    0.0000 N   0  0  0  0  0  0  0  0  0  0  0  0
    2.0238    2.9413    0.0000 C   0  0  0  0  0  0  0  0  0  0  0  0
    2.0195    3.9416    0.0000 C   0  0  0  0  0  0  0  0  0  0  0  0
    1.1515    4.4380    0.0000 O   0  0  0  0  0  0  0  0  0  0  0  0
    2.8968    1.4454    0.0000 C   0  0  0  0  0  0  0  0  0  0  0  0
    3.7646    0.9496    0.0000 C   0  0  0  0  0  0  0  0  0  0  0  0
    3.7827   -3.0505    0.0000 C   0  0  0  0  0  0  0  0  0  0  0  0
    2.9185   -3.5542    0.0000 C   0  0  0  0  0  0  0  0  0  0  0  0
   -7.2336   -1.8968    0.0000 F   0  0  0  0  0  0  0  0  0  0  0  0
  1  2  1  0  0  0  0
  2  3  1  0  0  0  0
  2  4  1  0  0  0  0
  2 15  1  0  0  0  0
  4  5  1  0  0  0  0
  5  6  1  0  0  0  0
  6  7  2  0  0  0  0
  6 14  1  0  0  0  0
  7  8  1  0  0  0  0
  8  9  1  0  0  0  0
  8 13  2  0  0  0  0
  9 10  2  0  0  0  0
 10 11  1  0  0  0  0
 10 42  1  0  0  0  0
 11 12  2  0  0  0  0
 12 13  1  0  0  0  0
 13 14  1  0  0  0  0
 15 16  2  0  0  0  0
 15 17  1  0  0  0  0
 17 18  1  0  0  0  0
 18 19  1  0  0  0  0
 18 41  2  0  0  0  0
 19 20  2  0  0  0  0
 20 21  1  0  0  0  0
 21 22  1  0  0  0  0
 21 40  2  0  0  0  0
 22 23  2  0  0  0  0
 22 24  1  0  0  0  0
 24 25  1  0  0  0  0
 25 26  1  0  0  0  0
 25 30  2  0  0  0  0
 26 27  2  0  0  0  0
 27 28  1  0  0  0  0
 28 29  2  0  0  0  0
 29 30  1  0  0  0  0
 30 31  1  0  0  0  0
 31 32  1  0  0  0  0
 31 39  1  0  0  0  0
 32 33  1  0  0  0  0
 33 34  1  0  0  0  0
 34 35  1  0  0  0  0
 34 38  1  0  0  0  0
 35 36  1  0  0  0  0
 36 37  1  0  0  0  0
 38 39  1  0  0  0  0
 40 41  1  0  0  0  0
M  END
>  <ID> (INSCoV-050)
INSCoV-050

>  <HBA> (INSCoV-050)
3

>  <HBD> (INSCoV-050)
7

>  <MCE-18> (INSCoV-050)
65.71

>  <nRot> (INSCoV-050)
10

>  <TopoPSA> (INSCoV-050)
112.73

>  <chembl_closest> (INSCoV-050)
CHEMBL1374127

>  <chembl_max_sim> (INSCoV-050)
0,718807

>  <nSC> (INSCoV-050)
0

>  <nAR> (INSCoV-050)
4

>  <MW> (INSCoV-050)
572.29

$$$$

  -ISIS-  -- StrEd -- 

 35 39  0  0  0  0  0  0  0  0999 V2000
    4.6383    0.5438    0.0000 C   0  0  0  0  0  0  0  0  0  0  0  0
    3.7746    0.0399    0.0000 C   0  0  0  0  0  0  0  0  0  0  0  0
    2.9061    0.5362    0.0000 C   0  0  2  0  0  0  0  0  0  0  0  0
    2.0426    0.0320    0.0000 C   0  0  0  0  0  0  0  0  0  0  0  0
    1.1745    0.5288    0.0000 C   0  0  0  0  0  0  0  0  0  0  0  0
    1.1696    1.5285    0.0000 O   0  0  0  0  0  0  0  0  0  0  0  0
    0.3103    0.0246    0.0000 N   0  0  0  0  0  0  0  0  0  0  0  0
    0.3150   -0.9751    0.0000 C   0  0  0  0  0  0  0  0  0  0  0  0
    1.1829   -1.4714    0.0000 C   0  0  0  0  0  0  0  0  0  0  0  0
    1.1876   -2.4711    0.0000 N   0  0  0  0  0  0  0  0  0  0  0  0
    0.4835   -3.1815    0.0000 C   0  0  0  0  0  0  0  0  0  0  0  0
    1.1935   -3.8855    0.0000 C   0  0  0  0  0  0  0  0  0  0  0  0
    1.8975   -3.1760    0.0000 C   0  0  2  0  0  0  0  0  0  0  0  0
    2.7614   -2.6718    0.0000 C   0  0  0  0  0  0  0  0  0  0  0  0
    2.7660   -3.6715    0.0000 C   0  0  1  0  0  0  0  0  0  0  0  0
    3.2700   -4.5361    0.0000 N   0  0  0  0  0  0  0  0  0  0  0  0
   -0.5578    0.5207    0.0000 C   0  0  0  0  0  0  0  0  0  0  0  0
   -1.4695    0.1102    0.0000 N   0  0  0  0  0  0  0  0  0  0  0  0
   -2.1422    0.8506    0.0000 C   0  0  0  0  0  0  0  0  0  0  0  0
   -3.1423    0.8459    0.0000 C   0  0  0  0  0  0  0  0  0  0  0  0
   -3.6386   -0.0222    0.0000 O   0  0  0  0  0  0  0  0  0  0  0  0
   -4.6383   -0.0268    0.0000 C   0  0  0  0  0  0  0  0  0  0  0  0
   -3.6460    1.7097    0.0000 C   0  0  0  0  0  0  0  0  0  0  0  0
   -3.1500    2.5778    0.0000 C   0  0  0  0  0  0  0  0  0  0  0  0
   -2.1499    2.5824    0.0000 C   0  0  0  0  0  0  0  0  0  0  0  0
   -1.6536    3.4505    0.0000 O   0  0  0  0  0  0  0  0  0  0  0  0
   -1.6459    1.7185    0.0000 C   0  0  0  0  0  0  0  0  0  0  0  0
   -0.6669    1.5151    0.0000 S   0  0  0  0  0  0  0  0  0  0  0  0
    2.9019    1.5362    0.0000 C   0  0  0  0  0  0  0  0  0  0  0  0
    3.7657    2.0399    0.0000 C   0  0  0  0  0  0  0  0  0  0  0  0
    3.7611    3.0396    0.0000 C   0  0  0  0  0  0  0  0  0  0  0  0
    2.8930    3.5360    0.0000 C   0  0  0  0  0  0  0  0  0  0  0  0
    2.8888    4.5361    0.0000 Cl  0  0  0  0  0  0  0  0  0  0  0  0
    2.0293    3.0323    0.0000 C   0  0  0  0  0  0  0  0  0  0  0  0
    2.0338    2.0325    0.0000 C   0  0  0  0  0  0  0  0  0  0  0  0
  1  2  1  0  0  0  0
  3  2  1  6  0  0  0
  3  4  1  0  0  0  0
  3 29  1  0  0  0  0
  4  5  1  0  0  0  0
  5  6  2  0  0  0  0
  5  7  1  0  0  0  0
  7  8  1  0  0  0  0
  7 17  1  0  0  0  0
  8  9  1  0  0  0  0
 10  9  1  0  0  0  0
 10 11  1  0  0  0  0
 10 13  1  0  0  0  0
 11 12  1  0  0  0  0
 12 13  1  0  0  0  0
 13 14  1  1  0  0  0
 13 15  1  0  0  0  0
 14 15  1  0  0  0  0
 15 16  1  1  0  0  0
 17 18  2  0  0  0  0
 17 28  1  0  0  0  0
 18 19  1  0  0  0  0
 19 20  2  0  0  0  0
 19 27  1  0  0  0  0
 20 21  1  0  0  0  0
 20 23  1  0  0  0  0
 21 22  1  0  0  0  0
 23 24  2  0  0  0  0
 24 25  1  0  0  0  0
 25 26  1  0  0  0  0
 25 27  2  0  0  0  0
 27 28  1  0  0  0  0
 29 30  1  0  0  0  0
 29 35  2  0  0  0  0
 30 31  2  0  0  0  0
 31 32  1  0  0  0  0
 32 33  1  0  0  0  0
 32 34  2  0  0  0  0
 34 35  1  0  0  0  0
M  END
>  <ID> (INSCoV-051)
INSCoV-051

>  <HBA> (INSCoV-051)
4

>  <HBD> (INSCoV-051)
5

>  <MCE-18> (INSCoV-051)
127.89

>  <nRot> (INSCoV-051)
9

>  <TopoPSA> (INSCoV-051)
120.16

>  <chembl_closest> (INSCoV-051)
CHEMBL3730324

>  <chembl_max_sim> (INSCoV-051)
0,706589

>  <nSC> (INSCoV-051)
3

>  <nAR> (INSCoV-051)
3

>  <MW> (INSCoV-051)
514.18

$$$$

  -ISIS-  -- StrEd -- 

 38 41  0  0  0  0  0  0  0  0999 V2000
    0.3224    0.2318    0.0000 C   0  0  0  0  0  0  0  0  0  0  0  0
   -0.5439   -0.2677    0.0000 C   0  0  0  0  0  0  0  0  0  0  0  0
   -0.5448   -1.2677    0.0000 C   0  0  0  0  0  0  0  0  0  0  0  0
   -1.4111   -1.7668    0.0000 C   0  0  0  0  0  0  0  0  0  0  0  0
   -2.2770   -1.2663    0.0000 N   0  0  0  0  0  0  0  0  0  0  0  0
   -3.1428   -1.7658    0.0000 C   0  0  0  0  0  0  0  0  0  0  0  0
   -3.1438   -2.7659    0.0000 O   0  0  0  0  0  0  0  0  0  0  0  0
   -4.0087   -1.2649    0.0000 N   0  0  0  0  0  0  0  0  0  0  0  0
   -4.8749   -1.7644    0.0000 C   0  0  0  0  0  0  0  0  0  0  0  0
   -5.7408   -1.2639    0.0000 C   0  0  0  0  0  0  0  0  0  0  0  0
   -6.3842   -2.0290    0.0000 N   0  0  0  0  0  0  0  0  0  0  0  0
    0.3210   -1.7686    0.0000 C   0  0  0  0  0  0  0  0  0  0  0  0
    1.1873   -1.2693    0.0000 C   0  0  0  0  0  0  0  0  0  0  0  0
    1.1883   -0.2691    0.0000 C   0  0  0  0  0  0  0  0  0  0  0  0
    2.0545    0.2304    0.0000 C   0  0  0  0  0  0  0  0  0  0  0  0
    2.0551    1.2300    0.0000 O   0  0  0  0  0  0  0  0  0  0  0  0
    2.9200   -0.2705    0.0000 N   0  0  0  0  0  0  0  0  0  0  0  0
    3.7862    0.2284    0.0000 C   0  0  2  0  0  0  0  0  0  0  0  0
    4.6521   -0.2715    0.0000 C   0  0  0  0  0  0  0  0  0  0  0  0
    5.5183    0.2274    0.0000 C   0  0  0  0  0  0  0  0  0  0  0  0
    6.3842   -0.2735    0.0000 C   0  0  0  0  0  0  0  0  0  0  0  0
    6.3832   -1.2730    0.0000 C   0  0  0  0  0  0  0  0  0  0  0  0
    5.5169   -1.7726    0.0000 C   0  0  0  0  0  0  0  0  0  0  0  0
    4.6517   -1.2716    0.0000 C   0  0  0  0  0  0  0  0  0  0  0  0
    3.7848   -1.7712    0.0000 C   0  0  0  0  0  0  0  0  0  0  0  0
    4.2844   -2.6375    0.0000 F   0  0  0  0  0  0  0  0  0  0  0  0
    3.2843   -2.6371    0.0000 F   0  0  0  0  0  0  0  0  0  0  0  0
    2.9196   -1.2707    0.0000 F   0  0  0  0  0  0  0  0  0  0  0  0
    3.7872    1.2286    0.0000 C   0  0  2  0  0  0  0  0  0  0  0  0
    2.9790    1.8171    0.0000 C   0  0  0  0  0  0  0  0  0  0  0  0
    3.2883    2.7683    0.0000 C   0  0  0  0  0  0  0  0  0  0  0  0
    4.2888    2.7673    0.0000 C   0  0  0  0  0  0  0  0  0  0  0  0
    4.5968    1.8157    0.0000 O   0  0  0  0  0  0  0  0  0  0  0  0
   -5.3978   -0.3244    0.0000 C   0  0  0  0  0  0  0  0  0  0  0  0
   -6.3828   -0.4974    0.0000 C   0  0  0  0  0  0  0  0  0  0  0  0
    0.3204   -2.7683    0.0000 F   0  0  0  0  0  0  0  0  0  0  0  0
    5.5193    1.2276    0.0000 Cl  0  0  0  0  0  0  0  0  0  0  0  0
   -1.4097    0.2328    0.0000 C   0  0  0  0  0  0  0  0  0  0  0  0
  1  2  1  0  0  0  0
  1 14  2  0  0  0  0
  2  3  2  0  0  0  0
  2 38  1  0  0  0  0
  3  4  1  0  0  0  0
  3 12  1  0  0  0  0
  4  5  1  0  0  0  0
  5  6  1  0  0  0  0
  6  7  2  0  0  0  0
  6  8  1  0  0  0  0
  8  9  1  0  0  0  0
  9 10  1  0  0  0  0
 10 11  1  0  0  0  0
 10 34  1  0  0  0  0
 10 35  1  0  0  0  0
 12 13  2  0  0  0  0
 12 36  1  0  0  0  0
 13 14  1  0  0  0  0
 14 15  1  0  0  0  0
 15 16  2  0  0  0  0
 15 17  1  0  0  0  0
 18 17  1  1  0  0  0
 18 19  1  0  0  0  0
 29 18  1  0  0  0  0
 19 20  2  0  0  0  0
 19 24  1  0  0  0  0
 20 21  1  0  0  0  0
 20 37  1  0  0  0  0
 21 22  2  0  0  0  0
 22 23  1  0  0  0  0
 23 24  2  0  0  0  0
 24 25  1  0  0  0  0
 25 26  1  0  0  0  0
 25 27  1  0  0  0  0
 25 28  1  0  0  0  0
 29 30  1  0  0  0  0
 29 33  1  6  0  0  0
 30 31  1  0  0  0  0
 31 32  1  0  0  0  0
 32 33  1  0  0  0  0
 34 35  1  0  0  0  0
M  END
>  <ID> (INSCoV-052)
INSCoV-052

>  <HBA> (INSCoV-052)
3

>  <HBD> (INSCoV-052)
6

>  <MCE-18> (INSCoV-052)
97.68

>  <nRot> (INSCoV-052)
8

>  <TopoPSA> (INSCoV-052)
105.48

>  <chembl_closest> (INSCoV-052)
CHEMBL592239

>  <chembl_max_sim> (INSCoV-052)
0,717677

>  <nSC> (INSCoV-052)
2

>  <nAR> (INSCoV-052)
2

>  <MW> (INSCoV-052)
556.19

$$$$

  -ISIS-  -- StrEd -- 

 54 59  0  0  0  0  0  0  0  0999 V2000
   -6.5629    0.7010    0.0000 C   0  0  0  0  0  0  0  0  0  0  0  0
   -5.7003    1.1961    0.0000 C   0  0  0  0  0  0  0  0  0  0  0  0
   -5.6972    2.1908    0.0000 C   0  0  0  0  0  0  0  0  0  0  0  0
   -4.8430    0.6975    0.0000 C   0  0  0  0  0  0  0  0  0  0  0  0
   -3.9818    1.1922    0.0000 N   0  0  0  0  0  0  0  0  0  0  0  0
   -3.1287    0.6901    0.0000 C   0  0  0  0  0  0  0  0  0  0  0  0
   -3.1391   -0.3052    0.0000 O   0  0  0  0  0  0  0  0  0  0  0  0
   -2.2644    1.1737    0.0000 C   0  0  1  0  0  0  0  0  0  0  0  0
   -2.2340    2.1534    0.0000 C   0  0  0  0  0  0  0  0  0  0  0  0
   -1.3380    2.6112    0.0000 C   0  0  0  0  0  0  0  0  0  0  0  0
   -1.3226    3.6118    0.0000 C   0  0  0  0  0  0  0  0  0  0  0  0
   -2.1649    4.1562    0.0000 C   0  0  0  0  0  0  0  0  0  0  0  0
   -2.1336    5.1408    0.0000 O   0  0  0  0  0  0  0  0  0  0  0  0
   -3.0446    3.6666    0.0000 C   0  0  0  0  0  0  0  0  0  0  0  0
   -3.0952    2.6678    0.0000 C   0  0  0  0  0  0  0  0  0  0  0  0
   -1.4463    0.6912    0.0000 N   0  0  0  0  0  0  0  0  0  0  0  0
   -0.5570    1.1686    0.0000 C   0  0  0  0  0  0  0  0  0  0  0  0
   -0.5441    2.1738    0.0000 O   0  0  0  0  0  0  0  0  0  0  0  0
    0.3544    0.6458    0.0000 N   0  0  0  0  0  0  0  0  0  0  0  0
    0.3304   -0.3642    0.0000 C   0  0  1  0  0  0  0  0  0  0  0  0
    0.7156   -1.5029    0.0000 C   0  0  0  0  0  0  0  0  0  0  0  0
    0.0943   -2.5694    0.0000 C   0  0  0  0  0  0  0  0  0  0  0  0
   -0.8882   -2.5946    0.0000 C   0  0  0  0  0  0  0  0  0  0  0  0
   -1.3390   -3.4658    0.0000 C   0  0  0  0  0  0  0  0  0  0  0  0
   -0.8515   -4.2706    0.0000 C   0  0  0  0  0  0  0  0  0  0  0  0
   -1.3107   -5.1408    0.0000 F   0  0  0  0  0  0  0  0  0  0  0  0
    0.1306   -4.2169    0.0000 C   0  0  0  0  0  0  0  0  0  0  0  0
    0.6058   -3.3598    0.0000 C   0  0  0  0  0  0  0  0  0  0  0  0
    1.3230   -0.2084    0.0000 C   0  0  0  0  0  0  0  0  0  0  0  0
    1.6719    0.7229    0.0000 O   0  0  0  0  0  0  0  0  0  0  0  0
    1.9578   -0.9754    0.0000 N   0  0  0  0  0  0  0  0  0  0  0  0
    2.9394   -0.8046    0.0000 C   0  0  0  0  0  0  0  0  0  0  0  0
    3.5899   -1.5691    0.0000 C   0  0  0  0  0  0  0  0  0  0  0  0
    2.7183   -2.0653    0.0000 O   0  0  0  0  0  0  0  0  0  0  0  0
    4.2214   -0.7892    0.0000 C   0  0  0  0  0  0  0  0  0  0  0  0
    5.2007   -0.9799    0.0000 C   0  0  0  0  0  0  0  0  0  0  0  0
    5.5588   -1.9174    0.0000 C   0  0  0  0  0  0  0  0  0  0  0  0
    4.9008   -2.6754    0.0000 C   0  0  0  0  0  0  0  0  0  0  0  0
    3.9160   -2.5185    0.0000 C   0  0  0  0  0  0  0  0  0  0  0  0
   -0.5382   -0.8604    0.0000 C   0  0  0  0  0  0  0  0  0  0  0  0
   -0.5388   -1.7455    0.0000 C   0  0  0  0  0  0  0  0  0  0  0  0
   -1.4188   -2.2072    0.0000 C   0  0  0  0  0  0  0  0  0  0  0  0
   -2.2974   -1.7166    0.0000 C   0  0  0  0  0  0  0  0  0  0  0  0
   -3.1541   -2.2242    0.0000 C   0  0  0  0  0  0  0  0  0  0  0  0
   -4.0222   -1.7375    0.0000 O   0  0  0  0  0  0  0  0  0  0  0  0
   -3.1395   -3.2273    0.0000 N   0  0  0  0  0  0  0  0  0  0  0  0
   -3.9146   -3.8459    0.0000 C   0  0  0  0  0  0  0  0  0  0  0  0
   -3.6129   -4.7848    0.0000 C   0  0  0  0  0  0  0  0  0  0  0  0
   -2.6012   -4.7638    0.0000 C   0  0  0  0  0  0  0  0  0  0  0  0
   -2.3393   -3.8130    0.0000 C   0  0  0  0  0  0  0  0  0  0  0  0
   -2.2734   -0.7902    0.0000 C   0  0  0  0  0  0  0  0  0  0  0  0
   -1.4412   -0.3076    0.0000 C   0  0  0  0  0  0  0  0  0  0  0  0
    6.5629   -1.9174    0.0000 F   0  0  0  0  0  0  0  0  0  0  0  0
    6.0612   -2.7870    0.0000 F   0  0  0  0  0  0  0  0  0  0  0  0
  1  2  1  0  0  0  0
  2  3  1  0  0  0  0
  2  4  1  0  0  0  0
  4  5  1  0  0  0  0
  5  6  1  0  0  0  0
  6  7  2  0  0  0  0
  6  8  1  0  0  0  0
  8  9  1  0  0  0  0
  8 16  1  1  0  0  0
  9 10  1  0  0  0  0
  9 15  2  0  0  0  0
 10 11  2  0  0  0  0
 11 12  1  0  0  0  0
 12 13  1  0  0  0  0
 12 14  2  0  0  0  0
 14 15  1  0  0  0  0
 16 17  1  0  0  0  0
 16 52  1  0  0  0  0
 17 18  2  0  0  0  0
 17 19  1  0  0  0  0
 19 20  1  0  0  0  0
 20 21  1  6  0  0  0
 20 29  1  1  0  0  0
 20 40  1  0  0  0  0
 21 22  1  0  0  0  0
 22 23  1  0  0  0  0
 22 28  2  0  0  0  0
 23 24  2  0  0  0  0
 24 25  1  0  0  0  0
 25 26  1  0  0  0  0
 25 27  2  0  0  0  0
 27 28  1  0  0  0  0
 29 30  2  0  0  0  0
 29 31  1  0  0  0  0
 31 32  1  0  0  0  0
 33 32  1  0  0  0  0
 33 34  1  0  0  0  0
 33 35  1  0  0  0  0
 33 39  1  0  0  0  0
 35 36  1  0  0  0  0
 36 37  1  0  0  0  0
 37 38  1  0  0  0  0
 38 39  1  0  0  0  0
 40 41  1  0  0  0  0
 40 52  2  0  0  0  0
 41 42  2  0  0  0  0
 42 43  1  0  0  0  0
 43 44  1  0  0  0  0
 43 51  2  0  0  0  0
 44 45  2  0  0  0  0
 44 46  1  0  0  0  0
 46 47  1  0  0  0  0
 46 50  1  0  0  0  0
 47 48  1  0  0  0  0
 48 49  1  0  0  0  0
 49 50  1  0  0  0  0
 51 52  1  0  0  0  0
 37 53  1  0  0  0  0
 37 54  1  0  0  0  0
M  END
>  <ID> (INSCoV-053)
INSCoV-053

>  <HBA> (INSCoV-053)
6

>  <HBD> (INSCoV-053)
5

>  <MCE-18> (INSCoV-053)
141.93

>  <nRot> (INSCoV-053)
11

>  <TopoPSA> (INSCoV-053)
151.31

>  <chembl_closest> (INSCoV-053)
CHEMBL1165280

>  <chembl_max_sim> (INSCoV-053)
0,800231

>  <nSC> (INSCoV-053)
2

>  <nAR> (INSCoV-053)
3

>  <MW> (INSCoV-053)
749.34

$$$$

  -ISIS-  -- StrEd -- 

 43 47  0  0  0  0  0  0  0  0999 V2000
   -1.5801   -3.8988    0.0000 C   0  0  0  0  0  0  0  0  0  0  0  0
   -1.2281   -2.9635    0.0000 C   0  0  0  0  0  0  0  0  0  0  0  0
   -2.2142   -3.1268    0.0000 C   0  0  0  0  0  0  0  0  0  0  0  0
   -1.3916   -1.9791    0.0000 C   0  0  0  0  0  0  0  0  0  0  0  0
   -0.6195   -1.3446    0.0000 O   0  0  0  0  0  0  0  0  0  0  0  0
   -2.3268   -1.6282    0.0000 N   0  0  0  0  0  0  0  0  0  0  0  0
   -2.4890   -0.6333    0.0000 C   0  0  0  0  0  0  0  0  0  0  0  0
   -3.4350   -0.2898    0.0000 C   0  0  0  0  0  0  0  0  0  0  0  0
   -3.5780    0.7063    0.0000 C   0  0  0  0  0  0  0  0  0  0  0  0
   -2.8181    1.3258    0.0000 C   0  0  0  0  0  0  0  0  0  0  0  0
   -2.9708    2.3185    0.0000 N   0  0  0  0  0  0  0  0  0  0  0  0
   -2.1947    2.9457    0.0000 C   0  0  0  0  0  0  0  0  0  0  0  0
   -1.2619    2.5875    0.0000 O   0  0  0  0  0  0  0  0  0  0  0  0
   -2.3517    3.9298    0.0000 N   0  0  0  0  0  0  0  0  0  0  0  0
   -1.5819    4.5523    0.0000 C   0  0  0  0  0  0  0  0  0  0  0  0
   -0.6426    4.2285    0.0000 C   0  0  0  0  0  0  0  0  0  0  0  0
    0.1448    4.8333    0.0000 C   0  0  0  0  0  0  0  0  0  0  0  0
   -0.0196    5.8462    0.0000 C   0  0  0  0  0  0  0  0  0  0  0  0
   -0.9601    6.1720    0.0000 C   0  0  0  0  0  0  0  0  0  0  0  0
   -1.7480    5.5650    0.0000 C   0  0  0  0  0  0  0  0  0  0  0  0
   -1.8697    0.9862    0.0000 C   0  0  0  0  0  0  0  0  0  0  0  0
   -1.7089   -0.0174    0.0000 C   0  0  0  0  0  0  0  0  0  0  0  0
   -0.2933   -3.3155    0.0000 C   0  0  0  0  0  0  0  0  0  0  0  0
    0.4802   -2.6832    0.0000 O   0  0  0  0  0  0  0  0  0  0  0  0
   -0.1325   -4.3104    0.0000 N   0  0  0  0  0  0  0  0  0  0  0  0
   -0.8410   -5.0074    0.0000 C   0  0  0  0  0  0  0  0  0  0  0  0
   -0.3752   -5.8978    0.0000 C   0  0  0  0  0  0  0  0  0  0  0  0
    0.5904   -5.7445    0.0000 C   0  0  0  0  0  0  0  0  0  0  0  0
    0.7575   -4.7538    0.0000 C   0  0  1  0  0  0  0  0  0  0  0  0
    1.6436   -4.3019    0.0000 C   0  0  0  0  0  0  0  0  0  0  0  0
    1.6921   -3.3036    0.0000 O   0  0  0  0  0  0  0  0  0  0  0  0
    2.4801   -4.8379    0.0000 C   0  0  0  0  0  0  0  0  0  0  0  0
    3.3646   -4.3909    0.0000 C   0  0  0  0  0  0  0  0  0  0  0  0
    4.2143   -4.9271    0.0000 C   0  0  0  0  0  0  0  0  0  0  0  0
    4.1603   -5.9277    0.0000 C   0  0  0  0  0  0  0  0  0  0  0  0
    5.0100   -6.4724    0.0000 O   0  0  0  0  0  0  0  0  0  0  0  0
    3.2835   -6.3897    0.0000 C   0  0  0  0  0  0  0  0  0  0  0  0
    2.4431   -5.8393    0.0000 C   0  0  0  0  0  0  0  0  0  0  0  0
    0.7484    6.4724    0.0000 F   0  0  0  0  0  0  0  0  0  0  0  0
    1.5461   -6.3025    0.0000 Cl  0  0  0  0  0  0  0  0  0  0  0  0
   -4.3114   -0.7524    0.0000 C   0  0  0  0  0  0  0  0  0  0  0  0
   -4.5772    0.8578    0.0000 C   0  0  0  0  0  0  0  0  0  0  0  0
   -5.0100   -0.0356    0.0000 C   0  0  0  0  0  0  0  0  0  0  0  0
  1  2  1  0  0  0  0
  2  3  1  0  0  0  0
  2  4  1  0  0  0  0
  2 23  1  0  0  0  0
  4  5  2  0  0  0  0
  4  6  1  0  0  0  0
  6  7  1  0  0  0  0
  7  8  1  0  0  0  0
  7 22  2  0  0  0  0
  8  9  2  0  0  0  0
  8 41  1  0  0  0  0
  9 10  1  0  0  0  0
  9 42  1  0  0  0  0
 10 11  1  0  0  0  0
 10 21  2  0  0  0  0
 11 12  1  0  0  0  0
 12 13  2  0  0  0  0
 12 14  1  0  0  0  0
 14 15  1  0  0  0  0
 15 16  1  0  0  0  0
 15 20  2  0  0  0  0
 16 17  2  0  0  0  0
 17 18  1  0  0  0  0
 18 19  2  0  0  0  0
 18 39  1  0  0  0  0
 19 20  1  0  0  0  0
 21 22  1  0  0  0  0
 23 24  2  0  0  0  0
 23 25  1  0  0  0  0
 25 26  1  0  0  0  0
 25 29  1  0  0  0  0
 26 27  1  0  0  0  0
 27 28  1  0  0  0  0
 28 29  1  0  0  0  0
 29 30  1  6  0  0  0
 30 31  2  0  0  0  0
 30 32  1  0  0  0  0
 32 33  1  0  0  0  0
 32 38  2  0  0  0  0
 33 34  2  0  0  0  0
 34 35  1  0  0  0  0
 35 36  1  0  0  0  0
 35 37  2  0  0  0  0
 37 38  1  0  0  0  0
 38 40  1  0  0  0  0
 41 43  1  0  0  0  0
 42 43  1  0  0  0  0
M  END
>  <ID> (INSCoV-054)
INSCoV-054

>  <HBA> (INSCoV-054)
5

>  <HBD> (INSCoV-054)
4

>  <MCE-18> (INSCoV-054)
110

>  <nRot> (INSCoV-054)
7

>  <TopoPSA> (INSCoV-054)
127.84

>  <chembl_closest> (INSCoV-054)
No

>  <chembl_max_sim> (INSCoV-054)
0,7

>  <nSC> (INSCoV-054)
1

>  <nAR> (INSCoV-054)
3

>  <MW> (INSCoV-054)
606.2

$$$$

  -ISIS-  -- StrEd -- 

 42 46  0  0  0  0  0  0  0  0999 V2000
    7.9032    2.6789    0.0000 N   0  0  0  0  0  0  0  0  0  0  0  0
    7.0351    2.1737    0.0000 C   0  0  0  0  0  0  0  0  0  0  0  0
    7.0551    1.1725    0.0000 C   0  0  0  0  0  0  0  0  0  0  0  0
    6.1809    0.6835    0.0000 C   0  0  0  0  0  0  0  0  0  0  0  0
    5.3060    1.1653    0.0000 C   0  0  0  0  0  0  0  0  0  0  0  0
    4.4551    0.6709    0.0000 F   0  0  0  0  0  0  0  0  0  0  0  0
    5.3199    2.1672    0.0000 C   0  0  0  0  0  0  0  0  0  0  0  0
    4.4524    2.6649    0.0000 O   0  0  0  0  0  0  0  0  0  0  0  0
    3.5969    2.1652    0.0000 C   0  0  0  0  0  0  0  0  0  0  0  0
    2.7386    2.6581    0.0000 C   0  0  1  0  0  0  0  0  0  0  0  0
    2.7353    3.6522    0.0000 O   0  0  0  0  0  0  0  0  0  0  0  0
    1.8732    2.1551    0.0000 C   0  0  2  0  0  0  0  0  0  0  0  0
    1.6310    1.1911    0.0000 C   0  0  0  0  0  0  0  0  0  0  0  0
    0.6755    1.4626    0.0000 C   0  0  1  0  0  0  0  0  0  0  0  0
   -0.1893    0.9670    0.0000 C   0  0  0  0  0  0  0  0  0  0  0  0
   -1.0429    1.4694    0.0000 C   0  0  0  0  0  0  0  0  0  0  0  0
   -1.0369    2.4638    0.0000 O   0  0  0  0  0  0  0  0  0  0  0  0
   -1.9083    0.9791    0.0000 N   0  0  0  0  0  0  0  0  0  0  0  0
   -1.9976   -0.0277    0.0000 N   0  0  0  0  0  0  0  0  0  0  0  0
   -2.9901   -0.2304    0.0000 N   0  0  0  0  0  0  0  0  0  0  0  0
   -3.4971    0.6150    0.0000 C   0  0  0  0  0  0  0  0  0  0  0  0
   -4.4831    0.8073    0.0000 C   0  0  0  0  0  0  0  0  0  0  0  0
   -5.1370    0.0668    0.0000 O   0  0  0  0  0  0  0  0  0  0  0  0
   -6.1089    0.2619    0.0000 C   0  0  0  0  0  0  0  0  0  0  0  0
   -5.9141    1.2245    0.0000 F   0  0  0  0  0  0  0  0  0  0  0  0
   -6.8526    0.9210    0.0000 F   0  0  0  0  0  0  0  0  0  0  0  0
   -6.7729   -0.4841    0.0000 C   0  0  0  0  0  0  0  0  0  0  0  0
   -7.7509   -0.2605    0.0000 C   0  0  0  0  0  0  0  0  0  0  0  0
   -8.4043   -1.0163    0.0000 C   0  0  0  0  0  0  0  0  0  0  0  0
   -8.1089   -1.9743    0.0000 C   0  0  0  0  0  0  0  0  0  0  0  0
   -8.7661   -2.7065    0.0000 O   0  0  0  0  0  0  0  0  0  0  0  0
   -8.4569   -3.6522    0.0000 C   0  0  0  0  0  0  0  0  0  0  0  0
   -7.1236   -2.1633    0.0000 C   0  0  0  0  0  0  0  0  0  0  0  0
   -6.4437   -1.4308    0.0000 C   0  0  0  0  0  0  0  0  0  0  0  0
   -4.7890    1.7979    0.0000 C   0  0  0  0  0  0  0  0  0  0  0  0
   -5.7717    2.0074    0.0000 O   0  0  0  0  0  0  0  0  0  0  0  0
   -4.1165    2.5816    0.0000 C   0  0  0  0  0  0  0  0  0  0  0  0
   -3.1331    2.3581    0.0000 C   0  0  0  0  0  0  0  0  0  0  0  0
   -2.7958    1.3768    0.0000 C   0  0  0  0  0  0  0  0  0  0  0  0
    0.9172    2.4266    0.0000 C   0  0  0  0  0  0  0  0  0  0  0  0
    6.1768    2.6860    0.0000 C   0  0  0  0  0  0  0  0  0  0  0  0
    8.7661    2.1844    0.0000 C   0  0  0  0  0  0  0  0  0  0  0  0
  1  2  1  0  0  0  0
  1 42  1  0  0  0  0
  2  3  2  0  0  0  0
  2 41  1  0  0  0  0
  3  4  1  0  0  0  0
  4  5  2  0  0  0  0
  5  6  1  0  0  0  0
  5  7  1  0  0  0  0
  7  8  1  0  0  0  0
  7 41  2  0  0  0  0
  8  9  1  0  0  0  0
  9 10  1  0  0  0  0
 10 11  1  6  0  0  0
 10 12  1  0  0  0  0
 12 13  1  6  0  0  0
 12 40  1  0  0  0  0
 13 14  1  0  0  0  0
 14 15  1  1  0  0  0
 14 40  1  0  0  0  0
 15 16  1  0  0  0  0
 16 17  2  0  0  0  0
 16 18  1  0  0  0  0
 18 19  1  0  0  0  0
 18 39  1  0  0  0  0
 19 20  2  0  0  0  0
 20 21  1  0  0  0  0
 21 22  2  0  0  0  0
 21 39  1  0  0  0  0
 22 23  1  0  0  0  0
 22 35  1  0  0  0  0
 23 24  1  0  0  0  0
 24 25  1  0  0  0  0
 24 26  1  0  0  0  0
 24 27  1  0  0  0  0
 27 28  1  0  0  0  0
 27 34  2  0  0  0  0
 28 29  2  0  0  0  0
 29 30  1  0  0  0  0
 30 31  1  0  0  0  0
 30 33  2  0  0  0  0
 31 32  1  0  0  0  0
 33 34  1  0  0  0  0
 35 36  1  0  0  0  0
 35 37  2  0  0  0  0
 37 38  1  0  0  0  0
 38 39  2  0  0  0  0
M  END
>  <ID> (INSCoV-055)
INSCoV-055

>  <HBA> (INSCoV-055)
8

>  <HBD> (INSCoV-055)
3

>  <MCE-18> (INSCoV-055)
102.56

>  <nRot> (INSCoV-055)
11

>  <TopoPSA> (INSCoV-055)
127.96

>  <chembl_closest> (INSCoV-055)
No

>  <chembl_max_sim> (INSCoV-055)
0,7

>  <nSC> (INSCoV-055)
3

>  <nAR> (INSCoV-055)
4

>  <MW> (INSCoV-055)
586.2

$$$$

  -ISIS-  -- StrEd -- 

 38 42  0  0  0  0  0  0  0  0999 V2000
    4.1596    3.3247    0.0000 C   0  0  0  0  0  0  0  0  0  0  0  0
    3.3223    3.8703    0.0000 C   0  0  0  0  0  0  0  0  0  0  0  0
    2.4318    3.4180    0.0000 O   0  0  0  0  0  0  0  0  0  0  0  0
    1.5957    3.9637    0.0000 C   0  0  0  0  0  0  0  0  0  0  0  0
    1.6507    4.9613    0.0000 O   0  0  0  0  0  0  0  0  0  0  0  0
    0.7079    3.5222    0.0000 C   0  0  0  0  0  0  0  0  0  0  0  0
   -0.1806    3.9546    0.0000 N   0  0  0  0  0  0  0  0  0  0  0  0
   -0.9121    3.2773    0.0000 O   0  0  0  0  0  0  0  0  0  0  0  0
   -0.4425    2.3969    0.0000 C   0  0  0  0  0  0  0  0  0  0  0  0
   -0.9084    1.5051    0.0000 C   0  0  1  0  0  0  0  0  0  0  0  0
   -0.3702    0.6661    0.0000 N   0  0  0  0  0  0  0  0  0  0  0  0
   -0.8274   -0.2191    0.0000 C   0  0  2  0  0  0  0  0  0  0  0  0
   -1.8256   -0.2667    0.0000 C   0  0  0  0  0  0  0  0  0  0  0  0
   -0.2881   -1.0577    0.0000 C   0  0  0  0  0  0  0  0  0  0  0  0
   -0.7468   -1.9412    0.0000 C   0  0  0  0  0  0  0  0  0  0  0  0
   -0.2062   -2.7904    0.0000 C   0  0  0  0  0  0  0  0  0  0  0  0
    0.7875   -2.8476    0.0000 N   0  0  0  0  0  0  0  0  0  0  0  0
    1.0268   -3.8228    0.0000 C   0  0  0  0  0  0  0  0  0  0  0  0
    0.1972   -4.3474    0.0000 C   0  0  0  0  0  0  0  0  0  0  0  0
    0.1212   -5.3513    0.0000 C   0  0  0  0  0  0  0  0  0  0  0  0
   -0.5816   -3.7126    0.0000 N   0  0  0  0  0  0  0  0  0  0  0  0
   -1.9168    1.4592    0.0000 C   0  0  0  0  0  0  0  0  0  0  0  0
   -2.3629    0.5565    0.0000 C   0  0  0  0  0  0  0  0  0  0  0  0
   -3.3676    0.5268    0.0000 C   0  0  0  0  0  0  0  0  0  0  0  0
   -3.8310   -0.3691    0.0000 O   0  0  0  0  0  0  0  0  0  0  0  0
   -3.9264    1.3658    0.0000 C   0  0  0  0  0  0  0  0  0  0  0  0
   -3.4493    2.2522    0.0000 C   0  0  0  0  0  0  0  0  0  0  0  0
   -2.4461    2.3168    0.0000 C   0  0  0  0  0  0  0  0  0  0  0  0
   -1.9939    3.2049    0.0000 O   0  0  0  0  0  0  0  0  0  0  0  0
   -2.5369    4.0402    0.0000 C   0  0  0  0  0  0  0  0  0  0  0  0
   -1.6730    4.5172    0.0000 C   0  0  0  0  0  0  0  0  0  0  0  0
   -1.1382    5.3513    0.0000 C   0  0  0  0  0  0  0  0  0  0  0  0
   -0.6529    4.4862    0.0000 C   0  0  0  0  0  0  0  0  0  0  0  0
   -2.9161    4.9627    0.0000 C   0  0  0  0  0  0  0  0  0  0  0  0
   -3.9113    4.9092    0.0000 C   0  0  0  0  0  0  0  0  0  0  0  0
   -4.1596    3.9361    0.0000 C   0  0  0  0  0  0  0  0  0  0  0  0
   -3.3111    3.4116    0.0000 C   0  0  0  0  0  0  0  0  0  0  0  0
    0.5376    2.5138    0.0000 N   0  0  0  0  0  0  0  0  0  0  0  0
  1  2  1  0  0  0  0
  2  3  1  0  0  0  0
  3  4  1  0  0  0  0
  4  5  2  0  0  0  0
  4  6  1  0  0  0  0
  6  7  2  0  0  0  0
  6 38  1  0  0  0  0
  7  8  1  0  0  0  0
  8  9  1  0  0  0  0
  9 10  1  0  0  0  0
  9 38  2  0  0  0  0
 10 11  1  1  0  0  0
 10 22  1  0  0  0  0
 11 12  1  0  0  0  0
 12 13  1  1  0  0  0
 12 14  1  0  0  0  0
 14 15  1  0  0  0  0
 15 16  1  0  0  0  0
 16 17  2  0  0  0  0
 16 21  1  0  0  0  0
 17 18  1  0  0  0  0
 18 19  2  0  0  0  0
 19 20  1  0  0  0  0
 19 21  1  0  0  0  0
 22 23  2  0  0  0  0
 22 28  1  0  0  0  0
 23 24  1  0  0  0  0
 24 25  1  0  0  0  0
 24 26  2  0  0  0  0
 26 27  1  0  0  0  0
 27 28  2  0  0  0  0
 28 29  1  0  0  0  0
 29 30  1  0  0  0  0
 30 31  1  0  0  0  0
 30 34  1  0  0  0  0
 30 37  1  0  0  0  0
 31 32  1  0  0  0  0
 31 33  1  0  0  0  0
 32 33  1  0  0  0  0
 34 35  1  0  0  0  0
 35 36  1  0  0  0  0
 36 37  1  0  0  0  0
M  END
>  <ID> (INSCoV-056)
INSCoV-056

>  <HBA> (INSCoV-056)
8

>  <HBD> (INSCoV-056)
4

>  <MCE-18> (INSCoV-056)
97.55

>  <nRot> (INSCoV-056)
12

>  <TopoPSA> (INSCoV-056)
135.39

>  <chembl_closest> (INSCoV-056)
CHEMBL3759363

>  <chembl_max_sim> (INSCoV-056)
0,748588

>  <nSC> (INSCoV-056)
2

>  <nAR> (INSCoV-056)
3

>  <MW> (INSCoV-056)
523.28

$$$$

  -ISIS-  -- StrEd -- 

 36 39  0  0  0  0  0  0  0  0999 V2000
   -4.6908   -3.4076    0.0000 C   0  0  0  0  0  0  0  0  0  0  0  0
   -3.8261   -3.9085    0.0000 C   0  0  2  0  0  0  0  0  0  0  0  0
   -3.8275   -4.9075    0.0000 N   0  0  0  0  0  0  0  0  0  0  0  0
   -2.9613   -3.4101    0.0000 C   0  0  0  0  0  0  0  0  0  0  0  0
   -2.0952   -3.9085    0.0000 C   0  0  0  0  0  0  0  0  0  0  0  0
   -1.2376   -3.4151    0.0000 C   0  0  0  0  0  0  0  0  0  0  0  0
   -0.3625   -3.8850    0.0000 C   0  0  0  0  0  0  0  0  0  0  0  0
    0.5107   -3.4133    0.0000 C   0  0  0  0  0  0  0  0  0  0  0  0
    1.3690   -3.9082    0.0000 O   0  0  0  0  0  0  0  0  0  0  0  0
    0.5107   -2.3887    0.0000 C   0  0  0  0  0  0  0  0  0  0  0  0
   -0.3658   -1.9145    0.0000 C   0  0  0  0  0  0  0  0  0  0  0  0
   -0.3714   -0.8856    0.0000 C   0  0  0  0  0  0  0  0  0  0  0  0
   -1.2537   -0.3987    0.0000 N   0  0  0  0  0  0  0  0  0  0  0  0
   -1.2365    0.5798    0.0000 C   0  0  0  0  0  0  0  0  0  0  0  0
   -2.1102    1.0858    0.0000 O   0  0  0  0  0  0  0  0  0  0  0  0
   -0.3697    1.0968    0.0000 N   0  0  0  0  0  0  0  0  0  0  0  0
   -0.3704    2.0861    0.0000 C   0  0  0  0  0  0  0  0  0  0  0  0
    0.4918    0.5854    0.0000 C   0  0  0  0  0  0  0  0  0  0  0  0
    0.5088   -0.3960    0.0000 C   0  0  0  0  0  0  0  0  0  0  0  0
    1.4558   -0.7180    0.0000 C   0  0  0  0  0  0  0  0  0  0  0  0
    1.7592   -1.6596    0.0000 O   0  0  0  0  0  0  0  0  0  0  0  0
    2.0294    0.0958    0.0000 N   0  0  0  0  0  0  0  0  0  0  0  0
    3.0386    0.0935    0.0000 C   0  0  0  0  0  0  0  0  0  0  0  0
    1.4620    0.9067    0.0000 C   0  0  1  0  0  0  0  0  0  0  0  0
    1.7624    1.8523    0.0000 N   0  0  0  0  0  0  0  0  0  0  0  0
    1.0924    2.5931    0.0000 C   0  0  0  0  0  0  0  0  0  0  0  0
    2.7400    2.0634    0.0000 C   0  0  0  0  0  0  0  0  0  0  0  0
    3.0446    3.0064    0.0000 C   0  0  0  0  0  0  0  0  0  0  0  0
    2.3815    3.7646    0.0000 C   0  0  0  0  0  0  0  0  0  0  0  0
    2.6720    4.7159    0.0000 C   0  0  0  0  0  0  0  0  0  0  0  0
    3.6485    4.9075    0.0000 C   0  0  0  0  0  0  0  0  0  0  0  0
    4.3348    4.1695    0.0000 C   0  0  0  0  0  0  0  0  0  0  0  0
    4.0152    3.2279    0.0000 C   0  0  0  0  0  0  0  0  0  0  0  0
    4.6908    2.4784    0.0000 F   0  0  0  0  0  0  0  0  0  0  0  0
   -1.2397   -2.3902    0.0000 C   0  0  0  0  0  0  0  0  0  0  0  0
   -2.0999   -1.8978    0.0000 Cl  0  0  0  0  0  0  0  0  0  0  0  0
  1  2  1  0  0  0  0
  2  3  1  1  0  0  0
  2  4  1  0  0  0  0
  4  5  1  0  0  0  0
  5  6  1  0  0  0  0
  6  7  1  0  0  0  0
  6 35  2  0  0  0  0
  7  8  2  0  0  0  0
  8  9  1  0  0  0  0
  8 10  1  0  0  0  0
 10 11  2  0  0  0  0
 11 12  1  0  0  0  0
 11 35  1  0  0  0  0
 12 13  2  0  0  0  0
 12 19  1  0  0  0  0
 13 14  1  0  0  0  0
 14 15  2  0  0  0  0
 14 16  1  0  0  0  0
 16 17  1  0  0  0  0
 16 18  1  0  0  0  0
 18 19  2  0  0  0  0
 18 24  1  0  0  0  0
 19 20  1  0  0  0  0
 20 21  2  0  0  0  0
 20 22  1  0  0  0  0
 22 23  1  0  0  0  0
 24 22  1  6  0  0  0
 24 25  1  0  0  0  0
 25 26  1  0  0  0  0
 25 27  1  0  0  0  0
 27 28  1  0  0  0  0
 28 29  1  0  0  0  0
 28 33  2  0  0  0  0
 29 30  2  0  0  0  0
 30 31  1  0  0  0  0
 31 32  2  0  0  0  0
 32 33  1  0  0  0  0
 33 34  1  0  0  0  0
 35 36  1  0  0  0  0
M  END
>  <ID> (INSCoV-057)
INSCoV-057

>  <HBA> (INSCoV-057)
4

>  <HBD> (INSCoV-057)
5

>  <MCE-18> (INSCoV-057)
85.6

>  <nRot> (INSCoV-057)
7

>  <TopoPSA> (INSCoV-057)
104.69

>  <chembl_closest> (INSCoV-057)
CHEMBL1611593

>  <chembl_max_sim> (INSCoV-057)
0,782549

>  <nSC> (INSCoV-057)
2

>  <nAR> (INSCoV-057)
2

>  <MW> (INSCoV-057)
513.19

$$$$

  -ISIS-  -- StrEd -- 

 39 43  0  0  0  0  0  0  0  0999 V2000
    1.1701   -1.7016    0.0000 C   0  0  0  0  0  0  0  0  0  0  0  0
    1.1818   -0.7030    0.0000 C   0  0  0  0  0  0  0  0  0  0  0  0
    0.3205   -0.2118    0.0000 C   0  0  0  0  0  0  0  0  0  0  0  0
   -0.5293   -0.6940    0.0000 C   0  0  0  0  0  0  0  0  0  0  0  0
   -1.3811   -0.1988    0.0000 C   0  0  0  0  0  0  0  0  0  0  0  0
   -2.2357   -0.6926    0.0000 C   0  0  2  0  0  0  0  0  0  0  0  0
   -2.7300   -1.5493    0.0000 C   0  0  0  0  0  0  0  0  0  0  0  0
   -1.7410   -1.5491    0.0000 N   0  0  0  0  0  0  0  0  0  0  0  0
   -3.0897   -0.1995    0.0000 C   0  0  0  0  0  0  0  0  0  0  0  0
   -3.9443   -0.6933    0.0000 C   0  0  0  0  0  0  0  0  0  0  0  0
   -4.7888   -0.2035    0.0000 C   0  0  0  0  0  0  0  0  0  0  0  0
   -4.8026    0.7949    0.0000 C   0  0  0  0  0  0  0  0  0  0  0  0
   -5.6537    1.3092    0.0000 C   0  0  0  0  0  0  0  0  0  0  0  0
   -6.5054    0.8012    0.0000 C   0  0  0  0  0  0  0  0  0  0  0  0
   -7.3690    1.3028    0.0000 O   0  0  0  0  0  0  0  0  0  0  0  0
   -6.5245   -0.1968    0.0000 C   0  0  0  0  0  0  0  0  0  0  0  0
   -7.3733   -0.6834    0.0000 F   0  0  0  0  0  0  0  0  0  0  0  0
   -5.6567   -0.6830    0.0000 C   0  0  0  0  0  0  0  0  0  0  0  0
    0.3498    0.7848    0.0000 C   0  0  0  0  0  0  0  0  0  0  0  0
    1.2072    1.2864    0.0000 C   0  0  0  0  0  0  0  0  0  0  0  0
    1.2184    2.2650    0.0000 O   0  0  0  0  0  0  0  0  0  0  0  0
    2.0507    0.7654    0.0000 C   0  0  0  0  0  0  0  0  0  0  0  0
    2.0555   -0.2316    0.0000 C   0  0  0  0  0  0  0  0  0  0  0  0
    2.8526   -0.7062    0.0000 C   0  0  0  0  0  0  0  0  0  0  0  0
    2.8745   -1.7348    0.0000 N   0  0  0  0  0  0  0  0  0  0  0  0
    3.7523   -2.2650    0.0000 C   0  0  0  0  0  0  0  0  0  0  0  0
    4.6118   -1.7431    0.0000 C   0  0  0  0  0  0  0  0  0  0  0  0
    5.4791   -2.2380    0.0000 O   0  0  0  0  0  0  0  0  0  0  0  0
    4.6210   -0.7018    0.0000 N   0  0  0  0  0  0  0  0  0  0  0  0
    3.7332   -0.2145    0.0000 C   0  0  0  0  0  0  0  0  0  0  0  0
    3.9528    0.7618    0.0000 C   0  0  0  0  0  0  0  0  0  0  0  0
    3.2809    1.5002    0.0000 O   0  0  0  0  0  0  0  0  0  0  0  0
    4.9185    0.8869    0.0000 C   0  0  0  0  0  0  0  0  0  0  0  0
    5.3498   -0.0532    0.0000 C   0  0  1  0  0  0  0  0  0  0  0  0
    6.0286    0.7279    0.0000 O   0  0  0  0  0  0  0  0  0  0  0  0
    7.0372    0.4864    0.0000 C   0  0  0  0  0  0  0  0  0  0  0  0
    7.3733   -0.4899    0.0000 C   0  0  0  0  0  0  0  0  0  0  0  0
    6.6625   -1.2392    0.0000 O   0  0  0  0  0  0  0  0  0  0  0  0
    5.6448   -1.0408    0.0000 C   0  0  0  0  0  0  0  0  0  0  0  0
  1  2  1  0  0  0  0
  2  3  1  0  0  0  0
  2 23  2  0  0  0  0
  3  4  1  0  0  0  0
  3 19  2  0  0  0  0
  4  5  1  0  0  0  0
  5  6  1  0  0  0  0
  6  7  1  1  0  0  0
  6  8  1  6  0  0  0
  6  9  1  0  0  0  0
  9 10  1  0  0  0  0
 10 11  1  0  0  0  0
 11 12  2  0  0  0  0
 11 18  1  0  0  0  0
 12 13  1  0  0  0  0
 13 14  2  0  0  0  0
 14 15  1  0  0  0  0
 14 16  1  0  0  0  0
 16 17  1  0  0  0  0
 16 18  2  0  0  0  0
 19 20  1  0  0  0  0
 20 21  1  0  0  0  0
 20 22  2  0  0  0  0
 22 23  1  0  0  0  0
 23 24  1  0  0  0  0
 24 25  1  0  0  0  0
 24 30  2  0  0  0  0
 25 26  2  0  0  0  0
 26 27  1  0  0  0  0
 27 28  2  0  0  0  0
 27 29  1  0  0  0  0
 29 30  1  0  0  0  0
 29 34  1  0  0  0  0
 30 31  1  0  0  0  0
 31 32  2  0  0  0  0
 31 33  1  0  0  0  0
 33 34  1  0  0  0  0
 34 35  1  1  0  0  0
 34 39  1  0  0  0  0
 35 36  1  0  0  0  0
 36 37  1  0  0  0  0
 37 38  1  0  0  0  0
 38 39  1  0  0  0  0
M  END
>  <ID> (INSCoV-058)
INSCoV-058

>  <HBA> (INSCoV-058)
7

>  <HBD> (INSCoV-058)
5

>  <MCE-18> (INSCoV-058)
140.05

>  <nRot> (INSCoV-058)
7

>  <TopoPSA> (INSCoV-058)
136.9

>  <chembl_closest> (INSCoV-058)
CHEMBL3977246

>  <chembl_max_sim> (INSCoV-058)
0,815665

>  <nSC> (INSCoV-058)
2

>  <nAR> (INSCoV-058)
2

>  <MW> (INSCoV-058)
537.23

$$$$

  -ISIS-  -- StrEd -- 

 37 41  0  0  0  0  0  0  0  0999 V2000
    1.3822    0.8058    0.0000 C   0  0  0  0  0  0  0  0  0  0  0  0
    0.4114    0.6128    0.0000 C   0  0  0  0  0  0  0  0  0  0  0  0
    0.0851   -0.3486    0.0000 C   0  0  0  0  0  0  0  0  0  0  0  0
   -0.8773   -0.5757    0.0000 C   0  0  0  0  0  0  0  0  0  0  0  0
   -1.1865   -1.5178    0.0000 S   0  0  0  0  0  0  0  0  0  0  0  0
   -2.1393   -1.2143    0.0000 O   0  0  0  0  0  0  0  0  0  0  0  0
   -0.2337   -1.8222    0.0000 O   0  0  0  0  0  0  0  0  0  0  0  0
   -1.4896   -2.4706    0.0000 N   0  0  0  0  0  0  0  0  0  0  0  0
   -0.8146   -3.2088    0.0000 C   0  0  0  0  0  0  0  0  0  0  0  0
   -1.1154   -4.1621    0.0000 C   0  0  0  0  0  0  0  0  0  0  0  0
   -0.4400   -4.8997    0.0000 N   0  0  0  0  0  0  0  0  0  0  0  0
   -1.5648    0.1833    0.0000 C   0  0  0  0  0  0  0  0  0  0  0  0
   -1.2326    1.1409    0.0000 C   0  0  0  0  0  0  0  0  0  0  0  0
   -0.2794    1.3518    0.0000 C   0  0  0  0  0  0  0  0  0  0  0  0
    0.0387    2.3018    0.0000 C   0  0  1  0  0  0  0  0  0  0  0  0
   -0.9602    2.4374    0.0000 C   0  0  0  0  0  0  0  0  0  0  0  0
   -0.0155    3.2927    0.0000 C   0  0  0  0  0  0  0  0  0  0  0  0
    0.8256    3.8344    0.0000 O   0  0  0  0  0  0  0  0  0  0  0  0
   -0.9133    3.7530    0.0000 C   0  0  0  0  0  0  0  0  0  0  0  0
   -1.0323    4.7493    0.0000 C   0  0  0  0  0  0  0  0  0  0  0  0
   -2.0211    4.8997    0.0000 N   0  0  0  0  0  0  0  0  0  0  0  0
   -2.4835    4.0450    0.0000 C   0  0  0  0  0  0  0  0  0  0  0  0
   -3.4449    3.7750    0.0000 C   0  0  0  0  0  0  0  0  0  0  0  0
   -3.7444    2.8159    0.0000 C   0  0  0  0  0  0  0  0  0  0  0  0
   -4.7041    2.5742    0.0000 O   0  0  0  0  0  0  0  0  0  0  0  0
   -3.0344    2.1203    0.0000 C   0  0  0  0  0  0  0  0  0  0  0  0
   -2.0551    2.3414    0.0000 C   0  0  0  0  0  0  0  0  0  0  0  0
   -1.8012    3.3016    0.0000 N   0  0  0  0  0  0  0  0  0  0  0  0
    1.0009    2.5245    0.0000 C   0  0  0  0  0  0  0  0  0  0  0  0
    1.6702    1.7602    0.0000 N   0  0  0  0  0  0  0  0  0  0  0  0
    2.6588    1.9830    0.0000 C   0  0  0  0  0  0  0  0  0  0  0  0
    2.9594    2.9375    0.0000 C   0  0  0  0  0  0  0  0  0  0  0  0
    2.3682    3.7508    0.0000 C   0  0  0  0  0  0  0  0  0  0  0  0
    2.9479    4.5588    0.0000 C   0  0  0  0  0  0  0  0  0  0  0  0
    3.9069    4.2589    0.0000 C   0  0  0  0  0  0  0  0  0  0  0  0
    3.9082    3.2575    0.0000 S   0  0  0  0  0  0  0  0  0  0  0  0
    4.7041    4.8468    0.0000 C   0  0  0  0  0  0  0  0  0  0  0  0
  1  2  1  0  0  0  0
  1 30  1  0  0  0  0
  2  3  2  0  0  0  0
  2 14  1  0  0  0  0
  3  4  1  0  0  0  0
  4  5  1  0  0  0  0
  4 12  2  0  0  0  0
  5  6  2  0  0  0  0
  5  7  2  0  0  0  0
  5  8  1  0  0  0  0
  8  9  1  0  0  0  0
  9 10  1  0  0  0  0
 10 11  1  0  0  0  0
 12 13  1  0  0  0  0
 13 14  2  0  0  0  0
 14 15  1  0  0  0  0
 15 16  1  6  0  0  0
 15 17  1  1  0  0  0
 15 29  1  0  0  0  0
 17 18  2  0  0  0  0
 17 19  1  0  0  0  0
 19 20  2  0  0  0  0
 19 28  1  0  0  0  0
 20 21  1  0  0  0  0
 21 22  2  0  0  0  0
 22 23  1  0  0  0  0
 22 28  1  0  0  0  0
 23 24  2  0  0  0  0
 24 25  1  0  0  0  0
 24 26  1  0  0  0  0
 26 27  2  0  0  0  0
 27 28  1  0  0  0  0
 29 30  1  0  0  0  0
 30 31  1  0  0  0  0
 31 32  1  0  0  0  0
 32 33  2  0  0  0  0
 32 36  1  0  0  0  0
 33 34  1  0  0  0  0
 34 35  2  0  0  0  0
 35 36  1  0  0  0  0
 35 37  1  0  0  0  0
M  END
>  <ID> (INSCoV-059)
INSCoV-059

>  <HBA> (INSCoV-059)
5

>  <HBD> (INSCoV-059)
6

>  <MCE-18> (INSCoV-059)
101.65

>  <nRot> (INSCoV-059)
8

>  <TopoPSA> (INSCoV-059)
166.65

>  <chembl_closest> (INSCoV-059)
CHEMBL3646077

>  <chembl_max_sim> (INSCoV-059)
0,726475

>  <nSC> (INSCoV-059)
1

>  <nAR> (INSCoV-059)
3

>  <MW> (INSCoV-059)
539.17

$$$$

  -ISIS-  -- StrEd -- 

 45 48  0  0  0  0  0  0  0  0999 V2000
    4.1973    1.4186    0.0000 C   0  0  0  0  0  0  0  0  0  0  0  0
    4.2009    0.4186    0.0000 C   0  0  0  0  0  0  0  0  0  0  0  0
    5.0688   -0.0780    0.0000 C   0  0  1  0  0  0  0  0  0  0  0  0
    5.0724   -1.0779    0.0000 O   0  0  0  0  0  0  0  0  0  0  0  0
    4.2080   -1.5814    0.0000 C   0  0  0  0  0  0  0  0  0  0  0  0
    3.3403   -1.0843    0.0000 C   0  0  0  0  0  0  0  0  0  0  0  0
    2.4759   -1.5874    0.0000 C   0  0  0  0  0  0  0  0  0  0  0  0
    2.4798   -2.5874    0.0000 C   0  0  0  0  0  0  0  0  0  0  0  0
    1.6154   -3.0905    0.0000 C   0  0  2  0  0  0  0  0  0  0  0  0
    1.1186   -3.9582    0.0000 C   0  0  0  0  0  0  0  0  0  0  0  0
    2.1188   -3.9547    0.0000 O   0  0  0  0  0  0  0  0  0  0  0  0
    0.7477   -2.5937    0.0000 C   0  0  0  0  0  0  0  0  0  0  0  0
    0.7442   -1.5937    0.0000 C   0  0  0  0  0  0  0  0  0  0  0  0
   -0.1238   -1.0966    0.0000 C   0  0  0  0  0  0  0  0  0  0  0  0
   -0.9879   -1.6000    0.0000 C   0  0  0  0  0  0  0  0  0  0  0  0
   -1.8556   -1.1029    0.0000 C   0  0  0  0  0  0  0  0  0  0  0  0
   -1.8594   -0.1032    0.0000 O   0  0  0  0  0  0  0  0  0  0  0  0
   -2.7200   -1.6061    0.0000 N   0  0  0  0  0  0  0  0  0  0  0  0
   -3.5877   -1.1092    0.0000 C   0  0  0  0  0  0  0  0  0  0  0  0
   -4.4520   -1.6124    0.0000 C   0  0  0  0  0  0  0  0  0  0  0  0
   -5.3197   -1.1155    0.0000 C   0  0  0  0  0  0  0  0  0  0  0  0
   -6.1838   -1.6184    0.0000 C   0  0  0  0  0  0  0  0  0  0  0  0
   -7.0518   -1.1216    0.0000 N   0  0  0  0  0  0  0  0  0  0  0  0
   -6.1803   -2.6184    0.0000 O   0  0  0  0  0  0  0  0  0  0  0  0
   -5.3236   -0.1156    0.0000 C   0  0  0  0  0  0  0  0  0  0  0  0
   -4.4592    0.3876    0.0000 C   0  0  0  0  0  0  0  0  0  0  0  0
   -3.5912   -0.1092    0.0000 C   0  0  0  0  0  0  0  0  0  0  0  0
   -2.7271    0.3939    0.0000 C   0  0  0  0  0  0  0  0  0  0  0  0
   -0.9843   -2.6000    0.0000 C   0  0  0  0  0  0  0  0  0  0  0  0
   -0.1164   -3.0966    0.0000 C   0  0  0  0  0  0  0  0  0  0  0  0
    3.3475   -3.0842    0.0000 C   0  0  0  0  0  0  0  0  0  0  0  0
    4.2119   -2.5814    0.0000 C   0  0  0  0  0  0  0  0  0  0  0  0
    5.9329    0.4249    0.0000 C   0  0  0  0  0  0  0  0  0  0  0  0
    6.8009   -0.0719    0.0000 O   0  0  0  0  0  0  0  0  0  0  0  0
    5.9294    1.4249    0.0000 N   0  0  0  0  0  0  0  0  0  0  0  0
    6.7938    1.9281    0.0000 C   0  0  1  0  0  0  0  0  0  0  0  0
    7.7084    1.5245    0.0000 C   0  0  0  0  0  0  0  0  0  0  0  0
    8.3751    2.2701    0.0000 C   0  0  0  0  0  0  0  0  0  0  0  0
    7.8717    3.1342    0.0000 S   0  0  0  0  0  0  0  0  0  0  0  0
    8.7839    3.5443    0.0000 O   0  0  0  0  0  0  0  0  0  0  0  0
    7.5596    4.0842    0.0000 O   0  0  0  0  0  0  0  0  0  0  0  0
    6.8942    2.9228    0.0000 C   0  0  0  0  0  0  0  0  0  0  0  0
   -7.9162   -1.6247    0.0000 C   0  0  0  0  0  0  0  0  0  0  0  0
   -8.7839   -1.1279    0.0000 C   0  0  0  0  0  0  0  0  0  0  0  0
    3.3510   -4.0842    0.0000 F   0  0  0  0  0  0  0  0  0  0  0  0
  1  2  1  0  0  0  0
  3  2  1  6  0  0  0
  3  4  1  0  0  0  0
  3 33  1  0  0  0  0
  4  5  1  0  0  0  0
  5  6  2  0  0  0  0
  5 32  1  0  0  0  0
  6  7  1  0  0  0  0
  7  8  2  0  0  0  0
  8  9  1  0  0  0  0
  8 31  1  0  0  0  0
  9 10  1  1  0  0  0
  9 11  1  6  0  0  0
  9 12  1  0  0  0  0
 12 13  1  0  0  0  0
 12 30  2  0  0  0  0
 13 14  2  0  0  0  0
 14 15  1  0  0  0  0
 15 16  1  0  0  0  0
 15 29  2  0  0  0  0
 16 17  2  0  0  0  0
 16 18  1  0  0  0  0
 18 19  1  0  0  0  0
 19 20  2  0  0  0  0
 19 27  1  0  0  0  0
 20 21  1  0  0  0  0
 21 22  1  0  0  0  0
 21 25  2  0  0  0  0
 22 23  1  0  0  0  0
 22 24  2  0  0  0  0
 23 43  1  0  0  0  0
 25 26  1  0  0  0  0
 26 27  2  0  0  0  0
 27 28  1  0  0  0  0
 29 30  1  0  0  0  0
 31 32  2  0  0  0  0
 31 45  1  0  0  0  0
 33 34  2  0  0  0  0
 33 35  1  0  0  0  0
 36 35  1  6  0  0  0
 36 37  1  0  0  0  0
 36 42  1  0  0  0  0
 37 38  1  0  0  0  0
 38 39  1  0  0  0  0
 39 40  2  0  0  0  0
 39 41  2  0  0  0  0
 39 42  1  0  0  0  0
 43 44  1  0  0  0  0
M  END
>  <ID> (INSCoV-060)
INSCoV-060

>  <HBA> (INSCoV-060)
7

>  <HBD> (INSCoV-060)
4

>  <MCE-18> (INSCoV-060)
98.51

>  <nRot> (INSCoV-060)
11

>  <TopoPSA> (INSCoV-060)
159.28

>  <chembl_closest> (INSCoV-060)
CHEMBL1586925

>  <chembl_max_sim> (INSCoV-060)
0,792011

>  <nSC> (INSCoV-060)
3

>  <nAR> (INSCoV-060)
3

>  <MW> (INSCoV-060)
639.24

$$$$

  -ISIS-  -- StrEd -- 

 46 51  0  0  0  0  0  0  0  0999 V2000
    2.2840   -3.0762    0.0000 C   0  0  0  0  0  0  0  0  0  0  0  0
    1.2992   -3.2490    0.0000 C   0  0  2  0  0  0  0  0  0  0  0  0
    1.6403   -4.1889    0.0000 O   0  0  0  0  0  0  0  0  0  0  0  0
    1.3000   -2.2490    0.0000 C   0  0  0  0  0  0  0  0  0  0  0  0
    0.4344   -1.7484    0.0000 N   0  0  0  0  0  0  0  0  0  0  0  0
    0.4352   -0.7483    0.0000 C   0  0  0  0  0  0  0  0  0  0  0  0
    1.3017   -0.2490    0.0000 O   0  0  0  0  0  0  0  0  0  0  0  0
   -0.4304   -0.2475    0.0000 C   0  0  0  0  0  0  0  0  0  0  0  0
   -1.2969   -0.7469    0.0000 N   0  0  0  0  0  0  0  0  0  0  0  0
   -2.1625   -0.2460    0.0000 C   0  0  0  0  0  0  0  0  0  0  0  0
   -3.0290   -0.7456    0.0000 C   0  0  0  0  0  0  0  0  0  0  0  0
   -3.8944   -0.2447    0.0000 C   0  0  0  0  0  0  0  0  0  0  0  0
   -3.8936    0.7551    0.0000 C   0  0  0  0  0  0  0  0  0  0  0  0
   -3.0273    1.2545    0.0000 C   0  0  0  0  0  0  0  0  0  0  0  0
   -2.1617    0.7536    0.0000 C   0  0  0  0  0  0  0  0  0  0  0  0
   -1.2952    1.2530    0.0000 C   0  0  0  0  0  0  0  0  0  0  0  0
   -1.2943    2.2532    0.0000 C   0  0  0  0  0  0  0  0  0  0  0  0
   -2.1604    2.7539    0.0000 N   0  0  0  0  0  0  0  0  0  0  0  0
   -3.0741    2.3477    0.0000 C   0  0  0  0  0  0  0  0  0  0  0  0
   -3.7425    3.0916    0.0000 C   0  0  0  0  0  0  0  0  0  0  0  0
   -3.2419    3.9573    0.0000 C   0  0  0  0  0  0  0  0  0  0  0  0
   -2.2636    3.7484    0.0000 C   0  0  0  0  0  0  0  0  0  0  0  0
   -0.4295    0.7526    0.0000 C   0  0  0  0  0  0  0  0  0  0  0  0
    0.4367    1.2517    0.0000 C   0  0  1  0  0  0  0  0  0  0  0  0
    1.3024    0.7511    0.0000 O   0  0  0  0  0  0  0  0  0  0  0  0
    0.4376    2.2517    0.0000 C   0  0  0  0  0  0  0  0  0  0  0  0
   -0.4281    2.7526    0.0000 C   0  0  0  0  0  0  0  0  0  0  0  0
   -0.4272    3.7526    0.0000 C   0  0  0  0  0  0  0  0  0  0  0  0
    0.4393    4.2518    0.0000 C   0  0  0  0  0  0  0  0  0  0  0  0
    0.4401    5.2518    0.0000 N   0  0  0  0  0  0  0  0  0  0  0  0
    1.3064    5.7512    0.0000 C   0  0  0  0  0  0  0  0  0  0  0  0
    1.3072    6.7512    0.0000 N   0  0  0  0  0  0  0  0  0  0  0  0
    2.1720    5.2503    0.0000 O   0  0  0  0  0  0  0  0  0  0  0  0
    1.3049    3.7511    0.0000 C   0  0  0  0  0  0  0  0  0  0  0  0
    1.3040    2.7511    0.0000 C   0  0  0  0  0  0  0  0  0  0  0  0
   -0.4321   -2.2475    0.0000 C   0  0  0  0  0  0  0  0  0  0  0  0
   -0.4327   -3.2475    0.0000 C   0  0  0  0  0  0  0  0  0  0  0  0
    0.4327   -3.7484    0.0000 C   0  0  1  0  0  0  0  0  0  0  0  0
    0.4321   -4.7484    0.0000 C   0  0  0  0  0  0  0  0  0  0  0  0
    1.2977   -5.2491    0.0000 C   0  0  0  0  0  0  0  0  0  0  0  0
    2.1640   -4.7499    0.0000 C   0  0  0  0  0  0  0  0  0  0  0  0
    3.0296   -5.2503    0.0000 C   0  0  0  0  0  0  0  0  0  0  0  0
    3.0290   -6.2504    0.0000 C   0  0  0  0  0  0  0  0  0  0  0  0
    2.1625   -6.7497    0.0000 C   0  0  0  0  0  0  0  0  0  0  0  0
    1.2969   -6.2489    0.0000 C   0  0  0  0  0  0  0  0  0  0  0  0
    3.8944   -6.7512    0.0000 F   0  0  0  0  0  0  0  0  0  0  0  0
  2  1  1  1  0  0  0
  2  3  1  6  0  0  0
  2  4  1  0  0  0  0
  2 38  1  0  0  0  0
  4  5  1  0  0  0  0
  5  6  1  0  0  0  0
  5 36  1  0  0  0  0
  6  7  2  0  0  0  0
  6  8  1  0  0  0  0
  8  9  2  0  0  0  0
  8 23  1  0  0  0  0
  9 10  1  0  0  0  0
 10 11  2  0  0  0  0
 10 15  1  0  0  0  0
 11 12  1  0  0  0  0
 12 13  2  0  0  0  0
 13 14  1  0  0  0  0
 14 15  2  0  0  0  0
 15 16  1  0  0  0  0
 16 17  1  0  0  0  0
 16 23  2  0  0  0  0
 17 18  1  0  0  0  0
 18 19  1  0  0  0  0
 18 22  1  0  0  0  0
 19 20  1  0  0  0  0
 20 21  1  0  0  0  0
 21 22  1  0  0  0  0
 23 24  1  0  0  0  0
 24 25  1  6  0  0  0
 24 26  1  0  0  0  0
 26 27  1  0  0  0  0
 26 35  2  0  0  0  0
 27 28  2  0  0  0  0
 28 29  1  0  0  0  0
 29 30  1  0  0  0  0
 29 34  2  0  0  0  0
 30 31  1  0  0  0  0
 31 32  1  0  0  0  0
 31 33  2  0  0  0  0
 34 35  1  0  0  0  0
 36 37  1  0  0  0  0
 37 38  1  0  0  0  0
 38 39  1  6  0  0  0
 39 40  1  0  0  0  0
 40 41  1  0  0  0  0
 40 45  2  0  0  0  0
 41 42  2  0  0  0  0
 42 43  1  0  0  0  0
 43 44  2  0  0  0  0
 43 46  1  0  0  0  0
 44 45  1  0  0  0  0
M  END
>  <ID> (INSCoV-061)
INSCoV-061

>  <HBA> (INSCoV-061)
5

>  <HBD> (INSCoV-061)
6

>  <MCE-18> (INSCoV-061)
121.22

>  <nRot> (INSCoV-061)
8

>  <TopoPSA> (INSCoV-061)
132.02

>  <chembl_closest> (INSCoV-061)
CHEMBL261787

>  <chembl_max_sim> (INSCoV-061)
0,730418

>  <nSC> (INSCoV-061)
3

>  <nAR> (INSCoV-061)
4

>  <MW> (INSCoV-061)
625.31

$$$$

  -ISIS-  -- StrEd -- 

 40 44  0  0  0  0  0  0  0  0999 V2000
    3.2094    3.1746    0.0000 C   0  0  0  0  0  0  0  0  0  0  0  0
    2.5764    2.4136    0.0000 N   0  0  0  0  0  0  0  0  0  0  0  0
    2.8919    1.4652    0.0000 C   0  0  0  0  0  0  0  0  0  0  0  0
    2.2780    0.6757    0.0000 C   0  0  0  0  0  0  0  0  0  0  0  0
    1.2977    0.8777    0.0000 C   0  0  0  0  0  0  0  0  0  0  0  0
    0.3097    0.6899    0.0000 C   0  0  0  0  0  0  0  0  0  0  0  0
   -0.3484    1.4521    0.0000 C   0  0  0  0  0  0  0  0  0  0  0  0
   -1.3384    1.3813    0.0000 C   0  0  0  0  0  0  0  0  0  0  0  0
   -1.7208    2.3082    0.0000 C   0  0  0  0  0  0  0  0  0  0  0  0
   -2.6737    2.5404    0.0000 C   0  0  0  0  0  0  0  0  0  0  0  0
   -2.9586    3.5254    0.0000 C   0  0  0  0  0  0  0  0  0  0  0  0
   -3.9292    3.7367    0.0000 C   0  0  0  0  0  0  0  0  0  0  0  0
   -4.6396    3.0412    0.0000 C   0  0  0  0  0  0  0  0  0  0  0  0
   -4.3569    2.0558    0.0000 C   0  0  0  0  0  0  0  0  0  0  0  0
   -3.3841    1.8419    0.0000 C   0  0  0  0  0  0  0  0  0  0  0  0
   -0.9525    2.9501    0.0000 N   0  0  0  0  0  0  0  0  0  0  0  0
   -0.1022    2.4264    0.0000 O   0  0  0  0  0  0  0  0  0  0  0  0
    1.2887   -0.1320    0.0000 C   0  0  1  0  0  0  0  0  0  0  0  0
    0.4194   -0.6349    0.0000 N   0  0  0  0  0  0  0  0  0  0  0  0
    0.4201   -1.6289    0.0000 C   0  0  1  0  0  0  0  0  0  0  0  0
    1.2245   -2.2202    0.0000 C   0  0  0  0  0  0  0  0  0  0  0  0
    0.9260   -3.1733    0.0000 C   0  0  0  0  0  0  0  0  0  0  0  0
   -0.0775   -3.1763    0.0000 C   0  0  2  0  0  0  0  0  0  0  0  0
   -0.6489   -3.9870    0.0000 O   0  0  0  0  0  0  0  0  0  0  0  0
   -0.3814   -2.2258    0.0000 C   0  0  0  0  0  0  0  0  0  0  0  0
    2.1523   -0.6298    0.0000 C   0  0  0  0  0  0  0  0  0  0  0  0
    3.0181   -0.1311    0.0000 O   0  0  0  0  0  0  0  0  0  0  0  0
    2.1505   -1.6259    0.0000 N   0  0  0  0  0  0  0  0  0  0  0  0
    3.0160   -2.1356    0.0000 C   0  0  0  0  0  0  0  0  0  0  0  0
    3.9313   -1.7194    0.0000 C   0  0  0  0  0  0  0  0  0  0  0  0
    4.5974   -2.4656    0.0000 C   0  0  0  0  0  0  0  0  0  0  0  0
    5.6017   -2.3583    0.0000 O   0  0  0  0  0  0  0  0  0  0  0  0
    4.1030   -3.3370    0.0000 N   0  0  0  0  0  0  0  0  0  0  0  0
    4.5065   -4.2399    0.0000 C   0  0  0  0  0  0  0  0  0  0  0  0
    3.1219   -3.1231    0.0000 C   0  0  0  0  0  0  0  0  0  0  0  0
    0.9215    1.8041    0.0000 C   0  0  0  0  0  0  0  0  0  0  0  0
    1.5854    2.5514    0.0000 C   0  0  0  0  0  0  0  0  0  0  0  0
   -2.2708    4.2399    0.0000 F   0  0  0  0  0  0  0  0  0  0  0  0
   -5.6017    3.2805    0.0000 F   0  0  0  0  0  0  0  0  0  0  0  0
   -0.4508   -0.1329    0.0000 H   0  0  0  0  0  0  0  0  0  0  0  0
  1  2  1  0  0  0  0
  2  3  1  0  0  0  0
  2 37  1  0  0  0  0
  3  4  1  0  0  0  0
  4  5  1  0  0  0  0
  5  6  1  0  0  0  0
  5 18  1  0  0  0  0
  5 36  1  0  0  0  0
  6  7  1  0  0  0  0
  7  8  2  0  0  0  0
  7 17  1  0  0  0  0
  8  9  1  0  0  0  0
  9 10  1  0  0  0  0
  9 16  2  0  0  0  0
 10 11  2  0  0  0  0
 10 15  1  0  0  0  0
 11 12  1  0  0  0  0
 11 38  1  0  0  0  0
 12 13  2  0  0  0  0
 13 14  1  0  0  0  0
 13 39  1  0  0  0  0
 14 15  2  0  0  0  0
 16 17  1  0  0  0  0
 18 19  1  6  0  0  0
 18 26  1  0  0  0  0
 20 19  1  1  0  0  0
 20 21  1  0  0  0  0
 20 25  1  0  0  0  0
 21 22  1  0  0  0  0
 22 23  1  0  0  0  0
 23 24  1  6  0  0  0
 23 25  1  0  0  0  0
 26 27  2  0  0  0  0
 26 28  1  0  0  0  0
 28 29  1  0  0  0  0
 29 30  1  0  0  0  0
 29 35  2  0  0  0  0
 30 31  2  0  0  0  0
 31 32  1  0  0  0  0
 31 33  1  0  0  0  0
 33 34  1  0  0  0  0
 33 35  1  0  0  0  0
 36 37  1  0  0  0  0
 19 40  1  0  0  0  0
M  END
>  <ID> (INSCoV-062)
INSCoV-062

>  <HBA> (INSCoV-062)
5

>  <HBD> (INSCoV-062)
6

>  <MCE-18> (INSCoV-062)
107.76

>  <nRot> (INSCoV-062)
8

>  <TopoPSA> (INSCoV-062)
115.79

>  <chembl_closest> (INSCoV-062)
CHEMBL3805319

>  <chembl_max_sim> (INSCoV-062)
0,756065

>  <nSC> (INSCoV-062)
3

>  <nAR> (INSCoV-062)
3

>  <MW> (INSCoV-062)
543.27

$$$$

  -ISIS-  -- StrEd -- 

 37 40  0  0  0  0  0  0  0  0999 V2000
    7.6881    1.7668    0.0000 C   0  0  0  0  0  0  0  0  0  0  0  0
    6.9743    1.0701    0.0000 O   0  0  0  0  0  0  0  0  0  0  0  0
    6.0239    1.3370    0.0000 C   0  0  0  0  0  0  0  0  0  0  0  0
    5.7591    2.3026    0.0000 C   0  0  0  0  0  0  0  0  0  0  0  0
    4.7964    2.5904    0.0000 C   0  0  0  0  0  0  0  0  0  0  0  0
    4.0894    1.8757    0.0000 C   0  0  0  0  0  0  0  0  0  0  0  0
    3.1194    2.1481    0.0000 O   0  0  0  0  0  0  0  0  0  0  0  0
    4.3202    0.9014    0.0000 C   0  0  0  0  0  0  0  0  0  0  0  0
    5.2923    0.6472    0.0000 C   0  0  0  0  0  0  0  0  0  0  0  0
    5.5405   -0.3260    0.0000 C   0  0  0  0  0  0  0  0  0  0  0  0
    4.8255   -1.0283    0.0000 C   0  0  2  0  0  0  0  0  0  0  0  0
    4.2052   -0.2381    0.0000 C   0  0  0  0  0  0  0  0  0  0  0  0
    3.2189   -0.3851    0.0000 N   0  0  0  0  0  0  0  0  0  0  0  0
    2.5993    0.3969    0.0000 C   0  0  0  0  0  0  0  0  0  0  0  0
    2.9669    1.3236    0.0000 O   0  0  0  0  0  0  0  0  0  0  0  0
    1.6059    0.2436    0.0000 C   0  0  0  0  0  0  0  0  0  0  0  0
    0.9146    0.9786    0.0000 N   0  0  0  0  0  0  0  0  0  0  0  0
    0.0327    0.5185    0.0000 C   0  0  0  0  0  0  0  0  0  0  0  0
   -0.8589    0.9855    0.0000 C   0  0  0  0  0  0  0  0  0  0  0  0
   -0.8995    1.9821    0.0000 O   0  0  0  0  0  0  0  0  0  0  0  0
   -1.7005    0.4531    0.0000 O   0  0  0  0  0  0  0  0  0  0  0  0
   -2.5820    0.9173    0.0000 C   0  0  0  0  0  0  0  0  0  0  0  0
   -3.4243    0.3858    0.0000 C   0  0  0  0  0  0  0  0  0  0  0  0
   -4.3061    0.8498    0.0000 N   0  0  0  0  0  0  0  0  0  0  0  0
   -5.1393    0.3227    0.0000 C   0  0  0  0  0  0  0  0  0  0  0  0
   -5.1152   -0.6826    0.0000 C   0  0  0  0  0  0  0  0  0  0  0  0
   -5.9544   -1.2344    0.0000 N   0  0  0  0  0  0  0  0  0  0  0  0
   -6.8369   -0.7527    0.0000 C   0  0  0  0  0  0  0  0  0  0  0  0
   -6.8953    0.2508    0.0000 C   0  0  0  0  0  0  0  0  0  0  0  0
   -6.0376    0.7741    0.0000 C   0  0  0  0  0  0  0  0  0  0  0  0
    0.1598   -0.4673    0.0000 C   0  0  0  0  0  0  0  0  0  0  0  0
    1.1580   -0.6138    0.0000 S   0  0  0  0  0  0  0  0  0  0  0  0
    5.5974   -1.6609    0.0000 C   0  0  0  0  0  0  0  0  0  0  0  0
    5.2207   -2.5904    0.0000 C   0  0  0  0  0  0  0  0  0  0  0  0
    4.2337   -2.5270    0.0000 O   0  0  0  0  0  0  0  0  0  0  0  0
    3.9793   -1.5571    0.0000 C   0  0  0  0  0  0  0  0  0  0  0  0
   -7.6881   -1.2918    0.0000 C   0  0  0  0  0  0  0  0  0  0  0  0
  1  2  1  0  0  0  0
  2  3  1  0  0  0  0
  3  4  1  0  0  0  0
  3  9  2  0  0  0  0
  4  5  2  0  0  0  0
  5  6  1  0  0  0  0
  6  7  1  0  0  0  0
  6  8  2  0  0  0  0
  8  9  1  0  0  0  0
  9 10  1  0  0  0  0
 11 10  1  6  0  0  0
 11 12  1  1  0  0  0
 11 33  1  0  0  0  0
 11 36  1  0  0  0  0
 12 13  1  0  0  0  0
 13 14  1  0  0  0  0
 14 15  2  0  0  0  0
 14 16  1  0  0  0  0
 16 17  2  0  0  0  0
 16 32  1  0  0  0  0
 17 18  1  0  0  0  0
 18 19  1  0  0  0  0
 18 31  2  0  0  0  0
 19 20  2  0  0  0  0
 19 21  1  0  0  0  0
 21 22  1  0  0  0  0
 22 23  1  0  0  0  0
 23 24  1  0  0  0  0
 24 25  1  0  0  0  0
 25 26  1  0  0  0  0
 25 30  2  0  0  0  0
 26 27  2  0  0  0  0
 27 28  1  0  0  0  0
 28 29  2  0  0  0  0
 28 37  1  0  0  0  0
 29 30  1  0  0  0  0
 31 32  1  0  0  0  0
 33 34  1  0  0  0  0
 34 35  1  0  0  0  0
 35 36  1  0  0  0  0
M  END
>  <ID> (INSCoV-063)
INSCoV-063

>  <HBA> (INSCoV-063)
8

>  <HBD> (INSCoV-063)
3

>  <MCE-18> (INSCoV-063)
77.33

>  <nRot> (INSCoV-063)
11

>  <TopoPSA> (INSCoV-063)
160.14

>  <chembl_closest> (INSCoV-063)
CHEMBL3561436

>  <chembl_max_sim> (INSCoV-063)
0,726705

>  <nSC> (INSCoV-063)
1

>  <nAR> (INSCoV-063)
3

>  <MW> (INSCoV-063)
526.19

$$$$

  -ISIS-  -- StrEd -- 

 38 43  0  0  0  0  0  0  0  0999 V2000
   -5.2765   -6.2664    0.0000 F   0  0  0  0  0  0  0  0  0  0  0  0
   -4.4219   -5.7668    0.0000 C   0  0  0  0  0  0  0  0  0  0  0  0
   -4.4135   -4.7652    0.0000 C   0  0  0  0  0  0  0  0  0  0  0  0
   -3.5673   -4.2555    0.0000 C   0  0  0  0  0  0  0  0  0  0  0  0
   -2.6961   -4.7726    0.0000 C   0  0  0  0  0  0  0  0  0  0  0  0
   -2.6730   -5.7702    0.0000 C   0  0  0  0  0  0  0  0  0  0  0  0
   -3.5350   -6.2576    0.0000 C   0  0  0  0  0  0  0  0  0  0  0  0
   -1.7184   -6.0853    0.0000 N   0  0  0  0  0  0  0  0  0  0  0  0
   -1.1483   -5.2649    0.0000 C   0  0  0  0  0  0  0  0  0  0  0  0
   -0.1381   -5.2581    0.0000 O   0  0  0  0  0  0  0  0  0  0  0  0
   -1.7321   -4.4472    0.0000 C   0  0  1  0  0  0  0  0  0  0  0  0
   -1.4295   -3.5035    0.0000 C   0  0  0  0  0  0  0  0  0  0  0  0
   -0.4441   -3.3018    0.0000 C   0  0  0  0  0  0  0  0  0  0  0  0
    0.2189   -4.0508    0.0000 O   0  0  0  0  0  0  0  0  0  0  0  0
   -0.1302   -2.3632    0.0000 N   0  0  0  0  0  0  0  0  0  0  0  0
    0.8411   -2.1441    0.0000 C   0  0  0  0  0  0  0  0  0  0  0  0
    1.1655   -1.2028    0.0000 C   0  0  0  0  0  0  0  0  0  0  0  0
    0.4796   -0.4618    0.0000 C   0  0  0  0  0  0  0  0  0  0  0  0
    0.1101    0.4759    0.0000 O   0  0  0  0  0  0  0  0  0  0  0  0
    1.3226    0.0713    0.0000 C   0  0  0  0  0  0  0  0  0  0  0  0
    2.2128   -0.3791    0.0000 C   0  0  0  0  0  0  0  0  0  0  0  0
    3.0825    0.1279    0.0000 C   0  0  0  0  0  0  0  0  0  0  0  0
    3.0361    1.1148    0.0000 C   0  0  0  0  0  0  0  0  0  0  0  0
    3.7420    1.8079    0.0000 N   0  0  0  0  0  0  0  0  0  0  0  0
    3.3259    2.7261    0.0000 C   0  0  0  0  0  0  0  0  0  0  0  0
    3.7947    3.5997    0.0000 C   0  0  0  0  0  0  0  0  0  0  0  0
    4.7973    3.6598    0.0000 C   0  0  0  0  0  0  0  0  0  0  0  0
    5.2765    4.5298    0.0000 C   0  0  0  0  0  0  0  0  0  0  0  0
    4.7343    5.3907    0.0000 C   0  0  0  0  0  0  0  0  0  0  0  0
    3.7301    5.3284    0.0000 C   0  0  0  0  0  0  0  0  0  0  0  0
    3.2728    4.4634    0.0000 C   0  0  0  0  0  0  0  0  0  0  0  0
    2.2657    4.4178    0.0000 O   0  0  0  0  0  0  0  0  0  0  0  0
    2.3395    2.5741    0.0000 N   0  0  0  0  0  0  0  0  0  0  0  0
    2.1560    1.6201    0.0000 C   0  0  0  0  0  0  0  0  0  0  0  0
    1.3185    1.0721    0.0000 C   0  0  0  0  0  0  0  0  0  0  0  0
   -0.4980   -0.6490    0.0000 C   0  0  0  0  0  0  0  0  0  0  0  0
   -0.7915   -1.6003    0.0000 C   0  0  0  0  0  0  0  0  0  0  0  0
    5.1984    6.2664    0.0000 F   0  0  0  0  0  0  0  0  0  0  0  0
  1  2  1  0  0  0  0
  2  3  1  0  0  0  0
  2  7  2  0  0  0  0
  3  4  2  0  0  0  0
  4  5  1  0  0  0  0
  5  6  2  0  0  0  0
  5 11  1  0  0  0  0
  6  7  1  0  0  0  0
  6  8  1  0  0  0  0
  8  9  1  0  0  0  0
  9 10  2  0  0  0  0
  9 11  1  0  0  0  0
 11 12  1  6  0  0  0
 12 13  1  0  0  0  0
 13 14  2  0  0  0  0
 13 15  1  0  0  0  0
 15 16  1  0  0  0  0
 15 37  1  0  0  0  0
 16 17  1  0  0  0  0
 17 18  1  0  0  0  0
 18 19  1  0  0  0  0
 18 20  1  0  0  0  0
 18 36  1  0  0  0  0
 20 21  2  0  0  0  0
 20 35  1  0  0  0  0
 21 22  1  0  0  0  0
 22 23  2  0  0  0  0
 23 24  1  0  0  0  0
 23 34  1  0  0  0  0
 24 25  1  0  0  0  0
 25 26  1  0  0  0  0
 25 33  2  0  0  0  0
 26 27  1  0  0  0  0
 26 31  2  0  0  0  0
 27 28  2  0  0  0  0
 28 29  1  0  0  0  0
 29 30  2  0  0  0  0
 29 38  1  0  0  0  0
 30 31  1  0  0  0  0
 31 32  1  0  0  0  0
 33 34  1  0  0  0  0
 34 35  2  0  0  0  0
 36 37  1  0  0  0  0
M  END
>  <ID> (INSCoV-064)
INSCoV-064

>  <HBA> (INSCoV-064)
5

>  <HBD> (INSCoV-064)
4

>  <MCE-18> (INSCoV-064)
117

>  <nRot> (INSCoV-064)
4

>  <TopoPSA> (INSCoV-064)
118.55

>  <chembl_closest> (INSCoV-064)
CHEMBL4111719

>  <chembl_max_sim> (INSCoV-064)
0,740248

>  <nSC> (INSCoV-064)
1

>  <nAR> (INSCoV-064)
4

>  <MW> (INSCoV-064)
518.18

$$$$

  -ISIS-  -- StrEd -- 

 37 39  0  0  0  0  0  0  0  0999 V2000
    2.4071   -0.1120    0.0000 C   0  0  0  0  0  0  0  0  0  0  0  0
    3.2745    0.3857    0.0000 C   0  0  1  0  0  0  0  0  0  0  0  0
    4.1391   -0.1168    0.0000 C   0  0  0  0  0  0  0  0  0  0  0  0
    5.0066    0.3809    0.0000 O   0  0  0  0  0  0  0  0  0  0  0  0
    4.1363   -1.1167    0.0000 N   0  0  0  0  0  0  0  0  0  0  0  0
    5.0009   -1.6191    0.0000 C   0  0  2  0  0  0  0  0  0  0  0  0
    4.9978   -2.6190    0.0000 C   0  0  0  0  0  0  0  0  0  0  0  0
    5.8627   -3.1212    0.0000 C   0  0  0  0  0  0  0  0  0  0  0  0
    6.7301   -2.6240    0.0000 C   0  0  1  0  0  0  0  0  0  0  0  0
    7.5948   -3.1262    0.0000 O   0  0  0  0  0  0  0  0  0  0  0  0
    6.7330   -1.6239    0.0000 C   0  0  0  0  0  0  0  0  0  0  0  0
    5.8684   -1.1217    0.0000 C   0  0  0  0  0  0  0  0  0  0  0  0
    3.2774    1.3858    0.0000 S   0  0  0  0  0  0  0  0  0  0  0  0
    4.2773    1.3830    0.0000 O   0  0  0  0  0  0  0  0  0  0  0  0
    3.2802    2.3857    0.0000 O   0  0  0  0  0  0  0  0  0  0  0  0
    2.2772    1.3887    0.0000 C   0  0  0  0  0  0  0  0  0  0  0  0
    1.7798    2.2559    0.0000 C   0  0  0  0  0  0  0  0  0  0  0  0
    0.7796    2.2590    0.0000 C   0  0  0  0  0  0  0  0  0  0  0  0
    0.2772    1.3941    0.0000 C   0  0  0  0  0  0  0  0  0  0  0  0
   -0.7227    1.3970    0.0000 N   0  0  0  0  0  0  0  0  0  0  0  0
   -1.2251    0.5323    0.0000 C   0  0  0  0  0  0  0  0  0  0  0  0
   -0.7274   -0.3351    0.0000 O   0  0  0  0  0  0  0  0  0  0  0  0
   -2.2250    0.5352    0.0000 N   0  0  0  0  0  0  0  0  0  0  0  0
   -2.7275   -0.3294    0.0000 C   0  0  0  0  0  0  0  0  0  0  0  0
   -3.7276   -0.3266    0.0000 C   0  0  0  0  0  0  0  0  0  0  0  0
   -4.2248    0.5409    0.0000 C   0  0  0  0  0  0  0  0  0  0  0  0
   -5.2250    0.5437    0.0000 C   0  0  0  0  0  0  0  0  0  0  0  0
   -5.7274   -0.3209    0.0000 C   0  0  0  0  0  0  0  0  0  0  0  0
   -6.7273   -0.3180    0.0000 C   0  0  0  0  0  0  0  0  0  0  0  0
   -6.7301   -1.3182    0.0000 F   0  0  0  0  0  0  0  0  0  0  0  0
   -7.5948   -0.8157    0.0000 F   0  0  0  0  0  0  0  0  0  0  0  0
   -7.2250    0.5492    0.0000 F   0  0  0  0  0  0  0  0  0  0  0  0
   -5.2297   -1.1883    0.0000 C   0  0  0  0  0  0  0  0  0  0  0  0
   -4.2296   -1.1912    0.0000 C   0  0  0  0  0  0  0  0  0  0  0  0
    0.7749    0.5266    0.0000 C   0  0  0  0  0  0  0  0  0  0  0  0
    1.7750    0.5240    0.0000 C   0  0  0  0  0  0  0  0  0  0  0  0
    0.2822    3.1262    0.0000 C   0  0  0  0  0  0  0  0  0  0  0  0
  2  1  1  6  0  0  0
  2  3  1  0  0  0  0
  2 13  1  0  0  0  0
  3  4  2  0  0  0  0
  3  5  1  0  0  0  0
  6  5  1  1  0  0  0
  6  7  1  0  0  0  0
  6 12  1  0  0  0  0
  7  8  1  0  0  0  0
  8  9  1  0  0  0  0
  9 10  1  6  0  0  0
  9 11  1  0  0  0  0
 11 12  1  0  0  0  0
 13 14  2  0  0  0  0
 13 15  2  0  0  0  0
 13 16  1  0  0  0  0
 16 17  1  0  0  0  0
 16 36  2  0  0  0  0
 17 18  2  0  0  0  0
 18 19  1  0  0  0  0
 18 37  1  0  0  0  0
 19 20  1  0  0  0  0
 19 35  2  0  0  0  0
 20 21  1  0  0  0  0
 21 22  2  0  0  0  0
 21 23  1  0  0  0  0
 23 24  1  0  0  0  0
 24 25  1  0  0  0  0
 25 26  1  0  0  0  0
 25 34  2  0  0  0  0
 26 27  2  0  0  0  0
 27 28  1  0  0  0  0
 28 29  1  0  0  0  0
 28 33  2  0  0  0  0
 29 30  1  0  0  0  0
 29 31  1  0  0  0  0
 29 32  1  0  0  0  0
 33 34  1  0  0  0  0
 35 36  1  0  0  0  0
M  END
>  <ID> (INSCoV-065)
INSCoV-065

>  <HBA> (INSCoV-065)
5

>  <HBD> (INSCoV-065)
4

>  <MCE-18> (INSCoV-065)
83.33

>  <nRot> (INSCoV-065)
7

>  <TopoPSA> (INSCoV-065)
132.98

>  <chembl_closest> (INSCoV-065)
CHEMBL491924

>  <chembl_max_sim> (INSCoV-065)
0,745754

>  <nSC> (INSCoV-065)
3

>  <nAR> (INSCoV-065)
2

>  <MW> (INSCoV-065)
541.19

$$$$

  -ISIS-  -- StrEd -- 

 41 45  0  0  0  0  0  0  0  0999 V2000
    3.6249   -1.3008    0.0000 C   0  0  0  0  0  0  0  0  0  0  0  0
    2.8077   -1.8542    0.0000 C   0  0  0  0  0  0  0  0  0  0  0  0
    1.8187   -1.9641    0.0000 C   0  0  0  0  0  0  0  0  0  0  0  0
    1.2285   -1.1628    0.0000 C   0  0  0  0  0  0  0  0  0  0  0  0
    1.6270   -0.2461    0.0000 O   0  0  0  0  0  0  0  0  0  0  0  0
    0.2367   -1.2781    0.0000 N   0  0  0  0  0  0  0  0  0  0  0  0
   -0.3627   -0.4701    0.0000 C   0  0  0  0  0  0  0  0  0  0  0  0
    0.0486    0.4358    0.0000 C   0  0  0  0  0  0  0  0  0  0  0  0
   -0.5584    1.2261    0.0000 C   0  0  0  0  0  0  0  0  0  0  0  0
   -1.5633    1.1263    0.0000 C   0  0  0  0  0  0  0  0  0  0  0  0
   -2.1542    1.9227    0.0000 N   0  0  0  0  0  0  0  0  0  0  0  0
   -3.1506    1.9310    0.0000 C   0  0  0  0  0  0  0  0  0  0  0  0
   -3.7445    1.1138    0.0000 O   0  0  0  0  0  0  0  0  0  0  0  0
   -3.4653    2.8742    0.0000 N   0  0  0  0  0  0  0  0  0  0  0  0
   -2.6452    3.4574    0.0000 C   0  0  1  0  0  0  0  0  0  0  0  0
   -3.3272    4.2029    0.0000 C   0  0  0  0  0  0  0  0  0  0  0  0
   -1.9915    4.2122    0.0000 C   0  0  0  0  0  0  0  0  0  0  0  0
   -2.3017    5.1683    0.0000 C   0  0  0  0  0  0  0  0  0  0  0  0
   -1.6425    5.9087    0.0000 C   0  0  0  0  0  0  0  0  0  0  0  0
   -0.6594    5.7116    0.0000 C   0  0  0  0  0  0  0  0  0  0  0  0
   -0.3496    4.7554    0.0000 C   0  0  0  0  0  0  0  0  0  0  0  0
   -1.0085    4.0154    0.0000 C   0  0  0  0  0  0  0  0  0  0  0  0
   -1.8524    2.8809    0.0000 C   0  0  0  0  0  0  0  0  0  0  0  0
   -0.8904    3.1823    0.0000 O   0  0  0  0  0  0  0  0  0  0  0  0
   -1.9457    0.2082    0.0000 C   0  0  0  0  0  0  0  0  0  0  0  0
   -1.3633   -0.6007    0.0000 C   0  0  0  0  0  0  0  0  0  0  0  0
   -1.7593   -1.5107    0.0000 C   0  0  0  0  0  0  0  0  0  0  0  0
   -2.7535   -1.6226    0.0000 O   0  0  0  0  0  0  0  0  0  0  0  0
   -1.1656   -2.3176    0.0000 N   0  0  0  0  0  0  0  0  0  0  0  0
   -1.5679   -3.2359    0.0000 C   0  0  0  0  0  0  0  0  0  0  0  0
   -0.9813   -4.0356    0.0000 C   0  0  0  0  0  0  0  0  0  0  0  0
    0.0236   -3.9400    0.0000 C   0  0  0  0  0  0  0  0  0  0  0  0
    0.6273   -4.7315    0.0000 C   0  0  0  0  0  0  0  0  0  0  0  0
    0.2115   -5.6368    0.0000 C   0  0  0  0  0  0  0  0  0  0  0  0
    0.8096   -6.4508    0.0000 O   0  0  0  0  0  0  0  0  0  0  0  0
   -0.7900   -5.7642    0.0000 C   0  0  0  0  0  0  0  0  0  0  0  0
   -1.3678   -4.9538    0.0000 C   0  0  0  0  0  0  0  0  0  0  0  0
   -2.3717   -5.0655    0.0000 O   0  0  0  0  0  0  0  0  0  0  0  0
   -2.7726   -5.9817    0.0000 C   0  0  0  0  0  0  0  0  0  0  0  0
    3.7445   -2.2812    0.0000 C   0  0  0  0  0  0  0  0  0  0  0  0
   -0.0008    6.4508    0.0000 F   0  0  0  0  0  0  0  0  0  0  0  0
  1  2  1  0  0  0  0
  1 40  1  0  0  0  0
  2  3  1  0  0  0  0
  2 40  1  0  0  0  0
  3  4  1  0  0  0  0
  4  5  2  0  0  0  0
  4  6  1  0  0  0  0
  6  7  1  0  0  0  0
  7  8  1  0  0  0  0
  7 26  2  0  0  0  0
  8  9  2  0  0  0  0
  9 10  1  0  0  0  0
 10 11  1  0  0  0  0
 10 25  2  0  0  0  0
 11 12  1  0  0  0  0
 11 23  1  0  0  0  0
 12 13  2  0  0  0  0
 12 14  1  0  0  0  0
 14 15  1  0  0  0  0
 15 16  1  6  0  0  0
 15 17  1  1  0  0  0
 15 23  1  0  0  0  0
 17 18  1  0  0  0  0
 17 22  2  0  0  0  0
 18 19  2  0  0  0  0
 19 20  1  0  0  0  0
 20 21  2  0  0  0  0
 20 41  1  0  0  0  0
 21 22  1  0  0  0  0
 23 24  2  0  0  0  0
 25 26  1  0  0  0  0
 26 27  1  0  0  0  0
 27 28  2  0  0  0  0
 27 29  1  0  0  0  0
 29 30  1  0  0  0  0
 30 31  1  0  0  0  0
 31 32  1  0  0  0  0
 31 37  2  0  0  0  0
 32 33  2  0  0  0  0
 33 34  1  0  0  0  0
 34 35  1  0  0  0  0
 34 36  2  0  0  0  0
 36 37  1  0  0  0  0
 37 38  1  0  0  0  0
 38 39  1  0  0  0  0
M  END
>  <ID> (INSCoV-066)
INSCoV-066

>  <HBA> (INSCoV-066)
6

>  <HBD> (INSCoV-066)
4

>  <MCE-18> (INSCoV-066)
102.74

>  <nRot> (INSCoV-066)
9

>  <TopoPSA> (INSCoV-066)
137.07

>  <chembl_closest> (INSCoV-066)
CHEMBL1886429

>  <chembl_max_sim> (INSCoV-066)
0,918526

>  <nSC> (INSCoV-066)
1

>  <nAR> (INSCoV-066)
3

>  <MW> (INSCoV-066)
560.21

$$$$

  -ISIS-  -- StrEd -- 

 48 53  0  0  0  0  0  0  0  0999 V2000
    2.4584   -1.8314    0.0000 C   0  0  0  0  0  0  0  0  0  0  0  0
    2.4545   -0.8321    0.0000 C   0  0  2  0  0  0  0  0  0  0  0  0
    3.3146   -0.3307    0.0000 C   0  0  0  0  0  0  0  0  0  0  0  0
    3.3104    0.6692    0.0000 O   0  0  0  0  0  0  0  0  0  0  0  0
    4.1766   -0.8254    0.0000 N   0  0  0  0  0  0  0  0  0  0  0  0
    5.0291   -0.3265    0.0000 C   0  0  0  0  0  0  0  0  0  0  0  0
    5.0571    0.6667    0.0000 C   0  0  0  0  0  0  0  0  0  0  0  0
    5.9021    1.1894    0.0000 C   0  0  0  0  0  0  0  0  0  0  0  0
    6.7907    0.6787    0.0000 C   0  0  0  0  0  0  0  0  0  0  0  0
    7.6413    1.1955    0.0000 C   0  0  0  0  0  0  0  0  0  0  0  0
    7.9773    0.2465    0.0000 C   0  0  0  0  0  0  0  0  0  0  0  0
    6.9760    1.9416    0.0000 C   0  0  0  0  0  0  0  0  0  0  0  0
    7.3480    2.8687    0.0000 C   0  0  0  0  0  0  0  0  0  0  0  0
    8.3269    3.0717    0.0000 O   0  0  0  0  0  0  0  0  0  0  0  0
    8.9447    2.2856    0.0000 C   0  0  0  0  0  0  0  0  0  0  0  0
    8.6319    1.3372    0.0000 C   0  0  0  0  0  0  0  0  0  0  0  0
    6.7650   -0.3164    0.0000 C   0  0  0  0  0  0  0  0  0  0  0  0
    7.6393   -0.8201    0.0000 F   0  0  0  0  0  0  0  0  0  0  0  0
    5.9172   -0.8391    0.0000 C   0  0  0  0  0  0  0  0  0  0  0  0
    1.5826   -0.3326    0.0000 N   0  0  0  0  0  0  0  0  0  0  0  0
    1.4843    0.6563    0.0000 C   0  0  0  0  0  0  0  0  0  0  0  0
    0.5001    0.8534    0.0000 C   0  0  0  0  0  0  0  0  0  0  0  0
    0.0131    0.0048    0.0000 C   0  0  1  0  0  0  0  0  0  0  0  0
   -0.9929   -0.1146    0.0000 O   0  0  0  0  0  0  0  0  0  0  0  0
   -1.5813    0.7027    0.0000 C   0  0  0  0  0  0  0  0  0  0  0  0
   -1.1801    1.6056    0.0000 C   0  0  0  0  0  0  0  0  0  0  0  0
   -1.7655    2.4226    0.0000 C   0  0  0  0  0  0  0  0  0  0  0  0
   -2.7639    2.3052    0.0000 C   0  0  0  0  0  0  0  0  0  0  0  0
   -3.1617    1.4012    0.0000 N   0  0  0  0  0  0  0  0  0  0  0  0
   -2.5758    0.5906    0.0000 C   0  0  0  0  0  0  0  0  0  0  0  0
   -2.9791   -0.3142    0.0000 S   0  0  0  0  0  0  0  0  0  0  0  0
   -3.8915    0.0911    0.0000 O   0  0  0  0  0  0  0  0  0  0  0  0
   -2.0654   -0.7209    0.0000 O   0  0  0  0  0  0  0  0  0  0  0  0
   -3.3769   -1.2240    0.0000 C   0  0  0  0  0  0  0  0  0  0  0  0
   -2.7991   -2.0413    0.0000 C   0  0  0  0  0  0  0  0  0  0  0  0
   -3.1896   -2.9632    0.0000 N   0  0  0  0  0  0  0  0  0  0  0  0
   -4.1990   -3.0717    0.0000 C   0  0  0  0  0  0  0  0  0  0  0  0
   -4.7753   -2.2543    0.0000 C   0  0  0  0  0  0  0  0  0  0  0  0
   -4.3862   -1.3333    0.0000 C   0  0  0  0  0  0  0  0  0  0  0  0
   -4.9668   -0.5330    0.0000 C   0  0  0  0  0  0  0  0  0  0  0  0
   -5.9722   -0.6449    0.0000 C   0  0  0  0  0  0  0  0  0  0  0  0
   -6.5458    0.1778    0.0000 C   0  0  0  0  0  0  0  0  0  0  0  0
   -7.5390    0.0461    0.0000 C   0  0  0  0  0  0  0  0  0  0  0  0
   -7.9610   -0.8534    0.0000 N   0  0  0  0  0  0  0  0  0  0  0  0
   -7.3480   -1.6469    0.0000 C   0  0  0  0  0  0  0  0  0  0  0  0
   -6.3496   -1.5639    0.0000 C   0  0  0  0  0  0  0  0  0  0  0  0
    0.6798   -0.7466    0.0000 C   0  0  0  0  0  0  0  0  0  0  0  0
   -8.9447   -0.9604    0.0000 C   0  0  0  0  0  0  0  0  0  0  0  0
  2  1  1  1  0  0  0
  2  3  1  0  0  0  0
  2 20  1  0  0  0  0
  3  4  2  0  0  0  0
  3  5  1  0  0  0  0
  5  6  1  0  0  0  0
  6  7  2  0  0  0  0
  6 19  1  0  0  0  0
  7  8  1  0  0  0  0
  8  9  2  0  0  0  0
  9 10  1  0  0  0  0
  9 17  1  0  0  0  0
 10 11  1  0  0  0  0
 10 12  1  0  0  0  0
 10 16  1  0  0  0  0
 12 13  1  0  0  0  0
 13 14  1  0  0  0  0
 14 15  1  0  0  0  0
 15 16  1  0  0  0  0
 17 18  1  0  0  0  0
 17 19  2  0  0  0  0
 20 21  1  0  0  0  0
 20 47  1  0  0  0  0
 21 22  1  0  0  0  0
 22 23  1  0  0  0  0
 23 24  1  6  0  0  0
 23 47  1  0  0  0  0
 24 25  1  0  0  0  0
 25 26  1  0  0  0  0
 25 30  2  0  0  0  0
 26 27  2  0  0  0  0
 27 28  1  0  0  0  0
 28 29  2  0  0  0  0
 29 30  1  0  0  0  0
 30 31  1  0  0  0  0
 31 32  2  0  0  0  0
 31 33  2  0  0  0  0
 31 34  1  0  0  0  0
 34 35  2  0  0  0  0
 34 39  1  0  0  0  0
 35 36  1  0  0  0  0
 36 37  2  0  0  0  0
 37 38  1  0  0  0  0
 38 39  2  0  0  0  0
 39 40  1  0  0  0  0
 40 41  1  0  0  0  0
 41 42  2  0  0  0  0
 41 46  1  0  0  0  0
 42 43  1  0  0  0  0
 43 44  1  0  0  0  0
 44 45  1  0  0  0  0
 44 48  1  0  0  0  0
 45 46  1  0  0  0  0
M  END
>  <ID> (INSCoV-067)
INSCoV-067

>  <HBA> (INSCoV-067)
7

>  <HBD> (INSCoV-067)
3

>  <MCE-18> (INSCoV-067)
127.75

>  <nRot> (INSCoV-067)
10

>  <TopoPSA> (INSCoV-067)
122.34

>  <chembl_closest> (INSCoV-067)
CHEMBL3687530

>  <chembl_max_sim> (INSCoV-067)
0,705102

>  <nSC> (INSCoV-067)
2

>  <nAR> (INSCoV-067)
3

>  <MW> (INSCoV-067)
677.3

$$$$

  -ISIS-  -- StrEd -- 

 35 39  0  0  0  0  0  0  0  0999 V2000
   -0.8663   -0.0444    0.0000 O   0  0  0  0  0  0  0  0  0  0  0  0
   -1.3618   -0.9111    0.0000 C   0  0  0  0  0  0  0  0  0  0  0  0
   -2.3681   -0.9186    0.0000 N   0  0  0  0  0  0  0  0  0  0  0  0
   -2.8685   -0.0469    0.0000 C   0  0  2  0  0  0  0  0  0  0  0  0
   -2.4667    0.8591    0.0000 C   0  0  0  0  0  0  0  0  0  0  0  0
   -3.2094    1.5341    0.0000 C   0  0  0  0  0  0  0  0  0  0  0  0
   -4.0715    1.0287    0.0000 O   0  0  0  0  0  0  0  0  0  0  0  0
   -3.8676    0.0505    0.0000 C   0  0  0  0  0  0  0  0  0  0  0  0
   -0.8722   -1.7705    0.0000 C   0  0  0  0  0  0  0  0  0  0  0  0
   -1.2787   -2.6843    0.0000 C   0  0  0  0  0  0  0  0  0  0  0  0
   -2.2662   -2.8907    0.0000 C   0  0  0  0  0  0  0  0  0  0  0  0
   -2.5785   -3.8396    0.0000 O   0  0  0  0  0  0  0  0  0  0  0  0
   -0.5419   -3.3617    0.0000 N   0  0  0  0  0  0  0  0  0  0  0  0
    0.3256   -2.8602    0.0000 S   0  0  0  0  0  0  0  0  0  0  0  0
    0.1275   -1.8805    0.0000 C   0  0  0  0  0  0  0  0  0  0  0  0
    0.7858   -1.1437    0.0000 N   0  0  0  0  0  0  0  0  0  0  0  0
    1.7745   -1.3565    0.0000 C   0  0  1  0  0  0  0  0  0  0  0  0
    2.0669   -2.3078    0.0000 C   0  0  0  0  0  0  0  0  0  0  0  0
    3.0426   -2.4944    0.0000 C   0  0  0  0  0  0  0  0  0  0  0  0
    3.7279   -1.7542    0.0000 C   0  0  0  0  0  0  0  0  0  0  0  0
    3.4040   -0.8133    0.0000 C   0  0  0  0  0  0  0  0  0  0  0  0
    2.4352   -0.5943    0.0000 C   0  0  1  0  0  0  0  0  0  0  0  0
    2.1223    0.3402    0.0000 C   0  0  0  0  0  0  0  0  0  0  0  0
    1.1436    0.5406    0.0000 O   0  0  0  0  0  0  0  0  0  0  0  0
    2.7792    1.0807    0.0000 N   0  0  0  0  0  0  0  0  0  0  0  0
    2.4778    2.0204    0.0000 C   0  0  0  0  0  0  0  0  0  0  0  0
    3.0624    2.8356    0.0000 C   0  0  0  0  0  0  0  0  0  0  0  0
    2.4895    3.6599    0.0000 S   0  0  0  0  0  0  0  0  0  0  0  0
    1.5401    3.3505    0.0000 C   0  0  0  0  0  0  0  0  0  0  0  0
    0.6831    3.8396    0.0000 C   0  0  0  0  0  0  0  0  0  0  0  0
   -0.1999    3.3495    0.0000 C   0  0  0  0  0  0  0  0  0  0  0  0
   -0.1957    2.3416    0.0000 C   0  0  0  0  0  0  0  0  0  0  0  0
    0.6480    1.8328    0.0000 C   0  0  0  0  0  0  0  0  0  0  0  0
    1.5174    2.3449    0.0000 C   0  0  0  0  0  0  0  0  0  0  0  0
    4.0715    2.8278    0.0000 C   0  0  0  0  0  0  0  0  0  0  0  0
  1  2  2  0  0  0  0
  2  3  1  0  0  0  0
  2  9  1  0  0  0  0
  4  3  1  1  0  0  0
  4  5  1  0  0  0  0
  4  8  1  0  0  0  0
  5  6  1  0  0  0  0
  6  7  1  0  0  0  0
  7  8  1  0  0  0  0
  9 10  1  0  0  0  0
  9 15  2  0  0  0  0
 10 11  1  0  0  0  0
 10 13  2  0  0  0  0
 11 12  1  0  0  0  0
 13 14  1  0  0  0  0
 14 15  1  0  0  0  0
 15 16  1  0  0  0  0
 17 16  1  6  0  0  0
 17 18  1  0  0  0  0
 17 22  1  0  0  0  0
 18 19  1  0  0  0  0
 19 20  1  0  0  0  0
 20 21  1  0  0  0  0
 21 22  1  0  0  0  0
 22 23  1  6  0  0  0
 23 24  2  0  0  0  0
 23 25  1  0  0  0  0
 25 26  1  0  0  0  0
 26 27  2  0  0  0  0
 26 34  1  0  0  0  0
 27 28  1  0  0  0  0
 27 35  1  0  0  0  0
 28 29  1  0  0  0  0
 29 30  1  0  0  0  0
 29 34  2  0  0  0  0
 30 31  2  0  0  0  0
 31 32  1  0  0  0  0
 32 33  2  0  0  0  0
 33 34  1  0  0  0  0
M  END
>  <ID> (INSCoV-068)
INSCoV-068

>  <HBA> (INSCoV-068)
5

>  <HBD> (INSCoV-068)
4

>  <MCE-18> (INSCoV-068)
95.59

>  <nRot> (INSCoV-068)
7

>  <TopoPSA> (INSCoV-068)
169.06

>  <chembl_closest> (INSCoV-068)
CHEMBL1707551

>  <chembl_max_sim> (INSCoV-068)
0,765709

>  <nSC> (INSCoV-068)
3

>  <nAR> (INSCoV-068)
3

>  <MW> (INSCoV-068)
514.17

$$$$

  -ISIS-  -- StrEd -- 

 38 41  0  0  0  0  0  0  0  0999 V2000
   -5.2007   -2.3624    0.0000 C   0  0  0  0  0  0  0  0  0  0  0  0
   -4.5284   -3.1038    0.0000 O   0  0  0  0  0  0  0  0  0  0  0  0
   -3.5499   -2.8928    0.0000 C   0  0  0  0  0  0  0  0  0  0  0  0
   -2.8783   -3.6346    0.0000 C   0  0  0  0  0  0  0  0  0  0  0  0
   -3.1857   -4.5872    0.0000 O   0  0  0  0  0  0  0  0  0  0  0  0
   -1.8988   -3.4254    0.0000 N   0  0  0  0  0  0  0  0  0  0  0  0
   -1.2299   -4.1599    0.0000 C   0  0  2  0  0  0  0  0  0  0  0  0
   -0.5614   -3.4280    0.0000 C   0  0  0  0  0  0  0  0  0  0  0  0
   -0.8706   -2.4762    0.0000 O   0  0  0  0  0  0  0  0  0  0  0  0
    0.4190   -3.6372    0.0000 N   0  0  0  0  0  0  0  0  0  0  0  0
    1.0842   -2.8812    0.0000 C   0  0  0  0  0  0  0  0  0  0  0  0
    0.7732   -1.9407    0.0000 C   0  0  0  0  0  0  0  0  0  0  0  0
    1.4370   -1.1851    0.0000 C   0  0  0  0  0  0  0  0  0  0  0  0
    2.4210   -1.3993    0.0000 C   0  0  0  0  0  0  0  0  0  0  0  0
    3.0869   -0.6463    0.0000 C   0  0  0  0  0  0  0  0  0  0  0  0
    2.7765    0.2964    0.0000 N   0  0  0  0  0  0  0  0  0  0  0  0
    3.4395    1.0510    0.0000 C   0  0  0  0  0  0  0  0  0  0  0  0
    3.2272    2.0236    0.0000 C   0  0  0  0  0  0  0  0  0  0  0  0
    4.0919    2.5353    0.0000 C   0  0  0  0  0  0  0  0  0  0  0  0
    4.1888    3.5120    0.0000 C   0  0  0  0  0  0  0  0  0  0  0  0
    5.1272    3.9312    0.0000 C   0  0  0  0  0  0  0  0  0  0  0  0
    5.2007    4.9233    0.0000 C   0  0  0  0  0  0  0  0  0  0  0  0
    4.4119    5.5309    0.0000 C   0  0  0  0  0  0  0  0  0  0  0  0
    4.5139    6.5180    0.0000 F   0  0  0  0  0  0  0  0  0  0  0  0
    3.4735    5.1123    0.0000 C   0  0  0  0  0  0  0  0  0  0  0  0
    3.3991    4.1192    0.0000 C   0  0  0  0  0  0  0  0  0  0  0  0
    4.8376    1.8650    0.0000 N   0  0  0  0  0  0  0  0  0  0  0  0
    4.4398    0.9463    0.0000 C   0  0  0  0  0  0  0  0  0  0  0  0
    4.9390    0.0904    0.0000 C   0  0  0  0  0  0  0  0  0  0  0  0
    2.7286   -2.3404    0.0000 C   0  0  0  0  0  0  0  0  0  0  0  0
    2.0648   -3.0912    0.0000 C   0  0  0  0  0  0  0  0  0  0  0  0
    2.3742   -4.0322    0.0000 O   0  0  0  0  0  0  0  0  0  0  0  0
    1.7073   -4.7785    0.0000 C   0  0  0  0  0  0  0  0  0  0  0  0
   -2.0314   -4.7563    0.0000 C   0  0  0  0  0  0  0  0  0  0  0  0
   -1.7319   -5.7095    0.0000 C   0  0  0  0  0  0  0  0  0  0  0  0
   -0.7259   -5.7091    0.0000 C   0  0  1  0  0  0  0  0  0  0  0  0
   -0.1501   -6.5180    0.0000 O   0  0  0  0  0  0  0  0  0  0  0  0
   -0.4273   -4.7563    0.0000 C   0  0  0  0  0  0  0  0  0  0  0  0
  1  2  1  0  0  0  0
  2  3  1  0  0  0  0
  3  4  1  0  0  0  0
  4  5  2  0  0  0  0
  4  6  1  0  0  0  0
  7  6  1  1  0  0  0
  7  8  1  6  0  0  0
  7 34  1  0  0  0  0
  7 38  1  0  0  0  0
  8  9  2  0  0  0  0
  8 10  1  0  0  0  0
 10 11  1  0  0  0  0
 11 12  1  0  0  0  0
 11 31  2  0  0  0  0
 12 13  2  0  0  0  0
 13 14  1  0  0  0  0
 14 15  1  0  0  0  0
 14 30  2  0  0  0  0
 15 16  1  0  0  0  0
 16 17  1  0  0  0  0
 17 18  1  0  0  0  0
 17 28  2  0  0  0  0
 18 19  2  0  0  0  0
 19 20  1  0  0  0  0
 19 27  1  0  0  0  0
 20 21  1  0  0  0  0
 20 26  2  0  0  0  0
 21 22  2  0  0  0  0
 22 23  1  0  0  0  0
 23 24  1  0  0  0  0
 23 25  2  0  0  0  0
 25 26  1  0  0  0  0
 27 28  1  0  0  0  0
 28 29  1  0  0  0  0
 30 31  1  0  0  0  0
 31 32  1  0  0  0  0
 32 33  1  0  0  0  0
 34 35  1  0  0  0  0
 35 36  1  0  0  0  0
 36 37  1  6  0  0  0
 36 38  1  0  0  0  0
M  END
>  <ID> (INSCoV-069)
INSCoV-069

>  <HBA> (INSCoV-069)
5

>  <HBD> (INSCoV-069)
5

>  <MCE-18> (INSCoV-069)
84.84

>  <nRot> (INSCoV-069)
10

>  <TopoPSA> (INSCoV-069)
124.71

>  <chembl_closest> (INSCoV-069)
CHEMBL1778533

>  <chembl_max_sim> (INSCoV-069)
0,702206

>  <nSC> (INSCoV-069)
2

>  <nAR> (INSCoV-069)
3

>  <MW> (INSCoV-069)
524.24

$$$$

  -ISIS-  -- StrEd -- 

 39 42  0  0  0  0  0  0  0  0999 V2000
   -3.0016    5.5910    0.0000 N   0  0  0  0  0  0  0  0  0  0  0  0
   -2.0071    5.4840    0.0000 C   0  0  0  0  0  0  0  0  0  0  0  0
   -1.6054    4.5792    0.0000 C   0  0  1  0  0  0  0  0  0  0  0  0
   -2.1049    3.7069    0.0000 C   0  0  0  0  0  0  0  0  0  0  0  0
   -1.4418    2.9673    0.0000 C   0  0  0  0  0  0  0  0  0  0  0  0
   -0.5204    3.3684    0.0000 N   0  0  0  0  0  0  0  0  0  0  0  0
    0.3407    2.8729    0.0000 C   0  0  0  0  0  0  0  0  0  0  0  0
    1.2061    3.3745    0.0000 O   0  0  0  0  0  0  0  0  0  0  0  0
    0.3476    1.8855    0.0000 C   0  0  0  0  0  0  0  0  0  0  0  0
    1.1925    1.3627    0.0000 C   0  0  0  0  0  0  0  0  0  0  0  0
    1.2204    0.3682    0.0000 C   0  0  0  0  0  0  0  0  0  0  0  0
    2.0762   -0.1303    0.0000 C   0  0  0  0  0  0  0  0  0  0  0  0
    2.9421    0.3718    0.0000 O   0  0  0  0  0  0  0  0  0  0  0  0
    2.0770   -1.1281    0.0000 N   0  0  0  0  0  0  0  0  0  0  0  0
    2.9394   -1.6306    0.0000 C   0  0  0  0  0  0  0  0  0  0  0  0
    2.9380   -2.6211    0.0000 C   0  0  0  0  0  0  0  0  0  0  0  0
    2.0470   -3.1309    0.0000 C   0  0  0  0  0  0  0  0  0  0  0  0
    2.0722   -4.1258    0.0000 C   0  0  0  0  0  0  0  0  0  0  0  0
    2.9189   -4.6509    0.0000 C   0  0  0  0  0  0  0  0  0  0  0  0
    2.9183   -5.6422    0.0000 C   0  0  0  0  0  0  0  0  0  0  0  0
    1.9179   -5.6363    0.0000 F   0  0  0  0  0  0  0  0  0  0  0  0
    2.4129   -6.5054    0.0000 F   0  0  0  0  0  0  0  0  0  0  0  0
    3.7800   -6.1476    0.0000 F   0  0  0  0  0  0  0  0  0  0  0  0
    3.8089   -4.1397    0.0000 C   0  0  0  0  0  0  0  0  0  0  0  0
    3.7825   -3.1462    0.0000 C   0  0  0  0  0  0  0  0  0  0  0  0
    0.3304   -0.1456    0.0000 C   0  0  0  0  0  0  0  0  0  0  0  0
   -0.5160    0.3783    0.0000 C   0  0  0  0  0  0  0  0  0  0  0  0
   -0.5434    1.3732    0.0000 C   0  0  0  0  0  0  0  0  0  0  0  0
   -1.3997    1.8713    0.0000 N   0  0  0  0  0  0  0  0  0  0  0  0
   -2.2647    1.3696    0.0000 C   0  0  0  0  0  0  0  0  0  0  0  0
   -3.1309    1.8685    0.0000 O   0  0  0  0  0  0  0  0  0  0  0  0
   -2.2633    0.3787    0.0000 N   0  0  0  0  0  0  0  0  0  0  0  0
   -3.0734   -0.2141    0.0000 C   0  0  0  0  0  0  0  0  0  0  0  0
   -2.7668   -1.1604    0.0000 C   0  0  0  0  0  0  0  0  0  0  0  0
   -1.7624   -1.1665    0.0000 C   0  0  0  0  0  0  0  0  0  0  0  0
   -1.4560   -0.2137    0.0000 C   0  0  0  0  0  0  0  0  0  0  0  0
   -0.6276    4.3641    0.0000 C   0  0  0  0  0  0  0  0  0  0  0  0
   -3.4060    6.5054    0.0000 H   0  0  0  0  0  0  0  0  0  0  0  0
   -3.8089    6.1815    0.0000 H   0  0  0  0  0  0  0  0  0  0  0  0
  1  2  1  0  0  0  0
  3  2  1  6  0  0  0
  3  4  1  0  0  0  0
  3 37  1  0  0  0  0
  4  5  1  0  0  0  0
  5  6  1  0  0  0  0
  6  7  1  0  0  0  0
  6 37  1  0  0  0  0
  7  8  2  0  0  0  0
  7  9  1  0  0  0  0
  9 10  2  0  0  0  0
  9 28  1  0  0  0  0
 10 11  1  0  0  0  0
 11 12  1  0  0  0  0
 11 26  2  0  0  0  0
 12 13  2  0  0  0  0
 12 14  1  0  0  0  0
 14 15  1  0  0  0  0
 15 16  1  0  0  0  0
 16 17  1  0  0  0  0
 16 25  2  0  0  0  0
 17 18  2  0  0  0  0
 18 19  1  0  0  0  0
 19 20  1  0  0  0  0
 19 24  2  0  0  0  0
 20 21  1  0  0  0  0
 20 22  1  0  0  0  0
 20 23  1  0  0  0  0
 24 25  1  0  0  0  0
 26 27  1  0  0  0  0
 27 28  2  0  0  0  0
 28 29  1  0  0  0  0
 29 30  1  0  0  0  0
 30 31  2  0  0  0  0
 30 32  1  0  0  0  0
 32 33  1  0  0  0  0
 32 36  1  0  0  0  0
 33 34  1  0  0  0  0
 34 35  1  0  0  0  0
 35 36  1  0  0  0  0
  1 38  1  0  0  0  0
  1 39  1  0  0  0  0
M  END
>  <ID> (INSCoV-070)
INSCoV-070

>  <HBA> (INSCoV-070)
3

>  <HBD> (INSCoV-070)
5

>  <MCE-18> (INSCoV-070)
89.24

>  <nRot> (INSCoV-070)
6

>  <TopoPSA> (INSCoV-070)
107.77

>  <chembl_closest> (INSCoV-070)
CHEMBL235219

>  <chembl_max_sim> (INSCoV-070)
0,793925

>  <nSC> (INSCoV-070)
1

>  <nAR> (INSCoV-070)
2

>  <MW> (INSCoV-070)
517.23

$$$$

  -ISIS-  -- StrEd -- 

 44 49  0  0  0  0  0  0  0  0999 V2000
    6.9726   -4.4369    0.0000 C   0  0  0  0  0  0  0  0  0  0  0  0
    6.8139   -3.4497    0.0000 N   0  0  0  0  0  0  0  0  0  0  0  0
    5.8809   -3.0941    0.0000 C   0  0  0  0  0  0  0  0  0  0  0  0
    5.7147   -2.1003    0.0000 C   0  0  0  0  0  0  0  0  0  0  0  0
    6.4307   -1.3982    0.0000 C   0  0  0  0  0  0  0  0  0  0  0  0
    5.9777   -0.5105    0.0000 C   0  0  0  0  0  0  0  0  0  0  0  0
    4.9908   -0.6578    0.0000 C   0  0  0  0  0  0  0  0  0  0  0  0
    4.8352   -1.6479    0.0000 N   0  0  0  0  0  0  0  0  0  0  0  0
    3.9484   -2.0972    0.0000 C   0  0  0  0  0  0  0  0  0  0  0  0
    3.0969   -1.5706    0.0000 C   0  0  0  0  0  0  0  0  0  0  0  0
    2.2031   -2.0125    0.0000 C   0  0  0  0  0  0  0  0  0  0  0  0
    2.1726   -3.0115    0.0000 C   0  0  0  0  0  0  0  0  0  0  0  0
    1.2751   -3.4697    0.0000 N   0  0  0  0  0  0  0  0  0  0  0  0
    0.4369   -2.9219    0.0000 C   0  0  0  0  0  0  0  0  0  0  0  0
    0.4909   -1.9246    0.0000 O   0  0  0  0  0  0  0  0  0  0  0  0
   -0.4606   -3.3786    0.0000 C   0  0  2  0  0  0  0  0  0  0  0  0
   -0.6088   -4.3683    0.0000 C   0  0  0  0  0  0  0  0  0  0  0  0
   -1.6019   -4.5228    0.0000 C   0  0  2  0  0  0  0  0  0  0  0  0
   -2.0445   -5.4277    0.0000 O   0  0  0  0  0  0  0  0  0  0  0  0
   -2.0560   -3.6386    0.0000 C   0  0  0  0  0  0  0  0  0  0  0  0
   -1.3529   -2.9230    0.0000 N   0  0  0  0  0  0  0  0  0  0  0  0
   -1.5100   -1.9554    0.0000 C   0  0  0  0  0  0  0  0  0  0  0  0
   -0.7125   -1.3098    0.0000 C   0  0  0  0  0  0  0  0  0  0  0  0
   -0.8966   -0.3312    0.0000 C   0  0  0  0  0  0  0  0  0  0  0  0
   -1.8148    0.0503    0.0000 C   0  0  0  0  0  0  0  0  0  0  0  0
   -2.6123   -0.5968    0.0000 C   0  0  0  0  0  0  0  0  0  0  0  0
   -3.5325   -0.2419    0.0000 N   0  0  0  0  0  0  0  0  0  0  0  0
   -3.6885    0.7430    0.0000 C   0  0  0  0  0  0  0  0  0  0  0  0
   -2.9108    1.3716    0.0000 O   0  0  0  0  0  0  0  0  0  0  0  0
   -4.6167    1.1008    0.0000 N   0  0  0  0  0  0  0  0  0  0  0  0
   -4.7766    2.0765    0.0000 C   0  0  0  0  0  0  0  0  0  0  0  0
   -3.9855    2.7184    0.0000 C   0  0  0  0  0  0  0  0  0  0  0  0
   -4.1665    3.7063    0.0000 C   0  0  0  0  0  0  0  0  0  0  0  0
   -5.0812    4.0657    0.0000 C   0  0  0  0  0  0  0  0  0  0  0  0
   -5.8757    3.4412    0.0000 C   0  0  0  0  0  0  0  0  0  0  0  0
   -5.6968    2.4491    0.0000 C   0  0  0  0  0  0  0  0  0  0  0  0
   -6.7906    3.7983    0.0000 O   0  0  0  0  0  0  0  0  0  0  0  0
   -6.9726    4.7858    0.0000 C   0  0  0  0  0  0  0  0  0  0  0  0
   -6.1825    5.4277    0.0000 C   0  0  0  0  0  0  0  0  0  0  0  0
   -5.2608    5.0555    0.0000 O   0  0  0  0  0  0  0  0  0  0  0  0
   -2.4264   -1.5721    0.0000 C   0  0  0  0  0  0  0  0  0  0  0  0
    3.0058   -3.5671    0.0000 C   0  0  0  0  0  0  0  0  0  0  0  0
    2.9583   -4.5557    0.0000 F   0  0  0  0  0  0  0  0  0  0  0  0
    3.8844   -3.0956    0.0000 C   0  0  0  0  0  0  0  0  0  0  0  0
  1  2  1  0  0  0  0
  2  3  1  0  0  0  0
  3  4  1  0  0  0  0
  4  5  2  0  0  0  0
  4  8  1  0  0  0  0
  5  6  1  0  0  0  0
  6  7  2  0  0  0  0
  7  8  1  0  0  0  0
  8  9  1  0  0  0  0
  9 10  2  0  0  0  0
  9 44  1  0  0  0  0
 10 11  1  0  0  0  0
 11 12  2  0  0  0  0
 12 13  1  0  0  0  0
 12 42  1  0  0  0  0
 13 14  1  0  0  0  0
 14 15  2  0  0  0  0
 16 14  1  6  0  0  0
 16 17  1  0  0  0  0
 16 21  1  0  0  0  0
 17 18  1  0  0  0  0
 18 19  1  6  0  0  0
 18 20  1  0  0  0  0
 20 21  1  0  0  0  0
 21 22  1  0  0  0  0
 22 23  1  0  0  0  0
 22 41  2  0  0  0  0
 23 24  2  0  0  0  0
 24 25  1  0  0  0  0
 25 26  2  0  0  0  0
 26 27  1  0  0  0  0
 26 41  1  0  0  0  0
 27 28  1  0  0  0  0
 28 29  2  0  0  0  0
 28 30  1  0  0  0  0
 30 31  1  0  0  0  0
 31 32  2  0  0  0  0
 31 36  1  0  0  0  0
 32 33  1  0  0  0  0
 33 34  2  0  0  0  0
 34 35  1  0  0  0  0
 34 40  1  0  0  0  0
 35 36  2  0  0  0  0
 35 37  1  0  0  0  0
 37 38  1  0  0  0  0
 38 39  1  0  0  0  0
 39 40  1  0  0  0  0
 42 43  1  0  0  0  0
 42 44  2  0  0  0  0
M  END
>  <ID> (INSCoV-071)
INSCoV-071

>  <HBA> (INSCoV-071)
5

>  <HBD> (INSCoV-071)
6

>  <MCE-18> (INSCoV-071)
108.9

>  <nRot> (INSCoV-071)
8

>  <TopoPSA> (INSCoV-071)
129.12

>  <chembl_closest> (INSCoV-071)
CHEMBL3673758

>  <chembl_max_sim> (INSCoV-071)
0,758041

>  <nSC> (INSCoV-071)
2

>  <nAR> (INSCoV-071)
4

>  <MW> (INSCoV-071)
600.25

$$$$

  -ISIS-  -- StrEd -- 

 45 50  0  0  0  0  0  0  0  0999 V2000
   -3.5678   -3.9915    0.0000 C   0  0  0  0  0  0  0  0  0  0  0  0
   -3.9110   -3.0531    0.0000 C   0  0  0  0  0  0  0  0  0  0  0  0
   -4.8953   -2.8815    0.0000 O   0  0  0  0  0  0  0  0  0  0  0  0
   -3.2766   -2.2945    0.0000 N   0  0  0  0  0  0  0  0  0  0  0  0
   -3.5898   -1.3448    0.0000 C   0  0  0  0  0  0  0  0  0  0  0  0
   -2.9734   -0.5576    0.0000 C   0  0  0  0  0  0  0  0  0  0  0  0
   -1.9956   -0.7615    0.0000 C   0  0  0  0  0  0  0  0  0  0  0  0
   -1.0003   -0.5718    0.0000 C   0  0  0  0  0  0  0  0  0  0  0  0
   -0.3541   -1.3471    0.0000 C   0  0  0  0  0  0  0  0  0  0  0  0
    0.6495   -1.2634    0.0000 C   0  0  0  0  0  0  0  0  0  0  0  0
    1.0084   -2.1945    0.0000 C   0  0  0  0  0  0  0  0  0  0  0  0
    1.9956   -2.4194    0.0000 C   0  0  0  0  0  0  0  0  0  0  0  0
    2.2567   -3.3949    0.0000 C   0  0  0  0  0  0  0  0  0  0  0  0
    3.2408   -3.6172    0.0000 C   0  0  0  0  0  0  0  0  0  0  0  0
    3.9149   -2.9127    0.0000 C   0  0  0  0  0  0  0  0  0  0  0  0
    3.6504   -1.9430    0.0000 C   0  0  0  0  0  0  0  0  0  0  0  0
    2.6741   -1.7170    0.0000 C   0  0  0  0  0  0  0  0  0  0  0  0
    0.2547   -2.8439    0.0000 N   0  0  0  0  0  0  0  0  0  0  0  0
   -0.5916   -2.2925    0.0000 O   0  0  0  0  0  0  0  0  0  0  0  0
   -1.9889    0.2458    0.0000 C   0  0  1  0  0  0  0  0  0  0  0  0
   -2.8556    0.7435    0.0000 N   0  0  0  0  0  0  0  0  0  0  0  0
   -2.8538    1.7508    0.0000 C   0  0  1  0  0  0  0  0  0  0  0  0
   -2.0398    2.3320    0.0000 C   0  0  0  0  0  0  0  0  0  0  0  0
   -2.3478    3.2919    0.0000 C   0  0  0  0  0  0  0  0  0  0  0  0
   -3.3485    3.2901    0.0000 C   0  0  2  0  0  0  0  0  0  0  0  0
   -3.9406    4.1078    0.0000 O   0  0  0  0  0  0  0  0  0  0  0  0
   -3.6667    2.3383    0.0000 C   0  0  0  0  0  0  0  0  0  0  0  0
   -1.1249    0.7490    0.0000 C   0  0  0  0  0  0  0  0  0  0  0  0
   -1.1291    1.7482    0.0000 O   0  0  0  0  0  0  0  0  0  0  0  0
   -0.2569    0.2549    0.0000 N   0  0  0  0  0  0  0  0  0  0  0  0
    0.5988    0.7542    0.0000 C   0  0  0  0  0  0  0  0  0  0  0  0
    1.5241    0.3610    0.0000 C   0  0  0  0  0  0  0  0  0  0  0  0
    2.1955    1.0855    0.0000 C   0  0  0  0  0  0  0  0  0  0  0  0
    3.1815    0.9905    0.0000 N   0  0  0  0  0  0  0  0  0  0  0  0
    3.7659    1.7999    0.0000 C   0  0  0  0  0  0  0  0  0  0  0  0
    1.6768    1.9658    0.0000 C   0  0  0  0  0  0  0  0  0  0  0  0
    0.7094    1.7401    0.0000 N   0  0  0  0  0  0  0  0  0  0  0  0
   -1.6219   -1.6896    0.0000 C   0  0  0  0  0  0  0  0  0  0  0  0
   -2.2872   -2.4345    0.0000 C   0  0  0  0  0  0  0  0  0  0  0  0
    1.5712   -4.1078    0.0000 F   0  0  0  0  0  0  0  0  0  0  0  0
    4.8953   -3.1455    0.0000 F   0  0  0  0  0  0  0  0  0  0  0  0
    0.0526    2.4836    0.0000 C   0  0  0  0  0  0  0  0  0  0  0  0
    0.3505    3.4569    0.0000 C   0  0  0  0  0  0  0  0  0  0  0  0
    1.3176    3.6560    0.0000 N   0  0  0  0  0  0  0  0  0  0  0  0
    1.9948    2.9257    0.0000 C   0  0  0  0  0  0  0  0  0  0  0  0
  1  2  1  0  0  0  0
  2  3  2  0  0  0  0
  2  4  1  0  0  0  0
  4  5  1  0  0  0  0
  4 39  1  0  0  0  0
  5  6  1  0  0  0  0
  6  7  1  0  0  0  0
  7  8  1  0  0  0  0
  7 20  1  0  0  0  0
  7 38  1  0  0  0  0
  8  9  1  0  0  0  0
  9 10  2  0  0  0  0
  9 19  1  0  0  0  0
 10 11  1  0  0  0  0
 11 12  1  0  0  0  0
 11 18  2  0  0  0  0
 12 13  2  0  0  0  0
 12 17  1  0  0  0  0
 13 14  1  0  0  0  0
 13 40  1  0  0  0  0
 14 15  2  0  0  0  0
 15 16  1  0  0  0  0
 15 41  1  0  0  0  0
 16 17  2  0  0  0  0
 18 19  1  0  0  0  0
 20 21  1  1  0  0  0
 20 28  1  0  0  0  0
 22 21  1  0  0  0  0
 22 23  1  6  0  0  0
 22 27  1  0  0  0  0
 23 24  1  0  0  0  0
 24 25  1  0  0  0  0
 25 26  1  1  0  0  0
 25 27  1  0  0  0  0
 28 29  2  0  0  0  0
 28 30  1  0  0  0  0
 30 31  1  0  0  0  0
 31 32  2  0  0  0  0
 31 37  1  0  0  0  0
 32 33  1  0  0  0  0
 33 34  1  0  0  0  0
 33 36  2  0  0  0  0
 34 35  1  0  0  0  0
 36 37  1  0  0  0  0
 36 45  1  0  0  0  0
 37 42  1  0  0  0  0
 38 39  1  0  0  0  0
 42 43  2  0  0  0  0
 43 44  1  0  0  0  0
 44 45  2  0  0  0  0
M  END
>  <ID> (INSCoV-072)
INSCoV-072

>  <HBA> (INSCoV-072)
6

>  <HBD> (INSCoV-072)
5

>  <MCE-18> (INSCoV-072)
123.65

>  <nRot> (INSCoV-072)
9

>  <TopoPSA> (INSCoV-072)
137.03

>  <chembl_closest> (INSCoV-072)
CHEMBL3662744

>  <chembl_max_sim> (INSCoV-072)
0,757319

>  <nSC> (INSCoV-072)
3

>  <nAR> (INSCoV-072)
3

>  <MW> (INSCoV-072)
621.29

$$$$

  -ISIS-  -- StrEd -- 

 30 34  0  0  0  0  0  0  0  0999 V2000
   -0.9552   -0.9047    0.0000 C   0  0  0  0  0  0  0  0  0  0  0  0
   -1.1681    0.0833    0.0000 C   0  0  0  0  0  0  0  0  0  0  0  0
   -2.1268    0.3601    0.0000 C   0  0  0  0  0  0  0  0  0  0  0  0
   -2.8610   -0.3001    0.0000 C   0  0  0  0  0  0  0  0  0  0  0  0
   -2.6567   -1.2759    0.0000 C   0  0  0  0  0  0  0  0  0  0  0  0
   -3.3914   -1.9410    0.0000 C   0  0  0  0  0  0  0  0  0  0  0  0
   -2.7307   -2.6822    0.0000 N   0  0  0  0  0  0  0  0  0  0  0  0
   -2.3060    1.3416    0.0000 C   0  0  0  0  0  0  0  0  0  0  0  0
   -1.5800    2.0389    0.0000 N   0  0  0  0  0  0  0  0  0  0  0  0
   -0.6400    1.7051    0.0000 C   0  0  0  0  0  0  0  0  0  0  0  0
   -0.4020    0.7359    0.0000 C   0  0  0  0  0  0  0  0  0  0  0  0
    0.5436    0.4323    0.0000 C   0  0  0  0  0  0  0  0  0  0  0  0
    0.7401   -0.5653    0.0000 C   0  0  0  0  0  0  0  0  0  0  0  0
    1.6881   -0.8620    0.0000 C   0  0  0  0  0  0  0  0  0  0  0  0
    1.8962   -1.8508    0.0000 F   0  0  0  0  0  0  0  0  0  0  0  0
    2.4305   -0.2122    0.0000 C   0  0  0  0  0  0  0  0  0  0  0  0
    2.2096    0.7749    0.0000 C   0  0  0  0  0  0  0  0  0  0  0  0
    1.2645    1.1041    0.0000 C   0  0  0  0  0  0  0  0  0  0  0  0
    1.2714    2.0842    0.0000 C   0  0  0  0  0  0  0  0  0  0  0  0
    0.4585    2.6822    0.0000 O   0  0  0  0  0  0  0  0  0  0  0  0
    2.2257    2.4128    0.0000 N   0  0  0  0  0  0  0  0  0  0  0  0
    2.7965    1.5962    0.0000 C   0  0  0  0  0  0  0  0  0  0  0  0
    3.3089    2.4431    0.0000 C   0  0  0  0  0  0  0  0  0  0  0  0
    4.3270    2.4556    0.0000 C   0  0  0  0  0  0  0  0  0  0  0  0
    4.8120    1.5847    0.0000 C   0  0  0  0  0  0  0  0  0  0  0  0
    4.3263    0.7220    0.0000 C   0  0  0  0  0  0  0  0  0  0  0  0
    3.3089    0.7410    0.0000 C   0  0  0  0  0  0  0  0  0  0  0  0
   -4.0640   -1.1992    0.0000 C   0  0  0  0  0  0  0  0  0  0  0  0
   -4.8120   -1.8650    0.0000 O   0  0  0  0  0  0  0  0  0  0  0  0
   -4.1394   -2.6065    0.0000 C   0  0  0  0  0  0  0  0  0  0  0  0
  1  2  1  0  0  0  0
  2  3  2  0  0  0  0
  2 11  1  0  0  0  0
  3  4  1  0  0  0  0
  3  8  1  0  0  0  0
  4  5  1  0  0  0  0
  5  6  1  0  0  0  0
  6  7  1  0  0  0  0
  6 28  1  0  0  0  0
  6 30  1  0  0  0  0
  8  9  2  0  0  0  0
  9 10  1  0  0  0  0
 10 11  2  0  0  0  0
 11 12  1  0  0  0  0
 12 13  2  0  0  0  0
 12 18  1  0  0  0  0
 13 14  1  0  0  0  0
 14 15  1  0  0  0  0
 14 16  2  0  0  0  0
 16 17  1  0  0  0  0
 17 18  2  0  0  0  0
 17 22  1  0  0  0  0
 18 19  1  0  0  0  0
 19 20  2  0  0  0  0
 19 21  1  0  0  0  0
 21 22  1  0  0  0  0
 22 23  1  0  0  0  0
 22 27  1  0  0  0  0
 23 24  1  0  0  0  0
 24 25  1  0  0  0  0
 25 26  1  0  0  0  0
 26 27  1  0  0  0  0
 28 29  1  0  0  0  0
 29 30  1  0  0  0  0
M  END
>  <ID> (INSCoV-073)
INSCoV-073

>  <HBA> (INSCoV-073)
3

>  <HBD> (INSCoV-073)
4

>  <MCE-18> (INSCoV-073)
101.5

>  <nRot> (INSCoV-073)
4

>  <TopoPSA> (INSCoV-073)
77.24

>  <chembl_closest> (INSCoV-073)
CHEMBL1801287

>  <chembl_max_sim> (INSCoV-073)
0.72

>  <nSC> (INSCoV-073)
0

>  <nAR> (INSCoV-073)
2

>  <MW> (INSCoV-073)
409.22

$$$$

  -ISIS-  -- StrEd -- 

 39 43  0  0  0  0  0  0  0  0999 V2000
    1.8889   -0.9629    0.0000 C   0  0  0  0  0  0  0  0  0  0  0  0
    1.0232   -0.4620    0.0000 C   0  0  0  0  0  0  0  0  0  0  0  0
    0.1571   -0.9616    0.0000 C   0  0  0  0  0  0  0  0  0  0  0  0
    0.1561   -1.9614    0.0000 C   0  0  0  0  0  0  0  0  0  0  0  0
   -0.7102   -2.4608    0.0000 C   0  0  0  0  0  0  0  0  0  0  0  0
   -0.7112   -3.4610    0.0000 C   0  0  2  0  0  0  0  0  0  0  0  0
    0.2737   -3.6352    0.0000 N   0  0  0  0  0  0  0  0  0  0  0  0
   -0.7089   -0.4607    0.0000 C   0  0  0  0  0  0  0  0  0  0  0  0
   -0.7079    0.5390    0.0000 C   0  0  0  0  0  0  0  0  0  0  0  0
   -1.5737    1.0399    0.0000 O   0  0  0  0  0  0  0  0  0  0  0  0
    0.1584    1.0385    0.0000 C   0  0  0  0  0  0  0  0  0  0  0  0
    1.0242    0.5376    0.0000 C   0  0  0  0  0  0  0  0  0  0  0  0
    1.8903    1.0370    0.0000 C   0  0  0  0  0  0  0  0  0  0  0  0
    2.7560    0.5363    0.0000 N   0  0  0  0  0  0  0  0  0  0  0  0
    3.6222    1.0356    0.0000 C   0  0  0  0  0  0  0  0  0  0  0  0
    3.6232    2.0355    0.0000 C   0  0  0  0  0  0  0  0  0  0  0  0
    2.7574    2.5364    0.0000 C   0  0  0  0  0  0  0  0  0  0  0  0
    2.7584    3.5361    0.0000 O   0  0  0  0  0  0  0  0  0  0  0  0
    1.8913    2.0374    0.0000 N   0  0  0  0  0  0  0  0  0  0  0  0
    4.4895    2.5345    0.0000 C   0  0  1  0  0  0  0  0  0  0  0  0
    4.4905    3.5353    0.0000 C   0  0  0  0  0  0  0  0  0  0  0  0
    5.4907    3.5343    0.0000 F   0  0  0  0  0  0  0  0  0  0  0  0
    4.9912    4.4005    0.0000 F   0  0  0  0  0  0  0  0  0  0  0  0
    3.6251    4.0356    0.0000 F   0  0  0  0  0  0  0  0  0  0  0  0
    5.3552    2.0341    0.0000 C   0  0  0  0  0  0  0  0  0  0  0  0
    5.3543    1.0343    0.0000 C   0  0  0  0  0  0  0  0  0  0  0  0
    6.2200    0.5334    0.0000 O   0  0  0  0  0  0  0  0  0  0  0  0
    4.4881    0.5347    0.0000 N   0  0  0  0  0  0  0  0  0  0  0  0
    4.4871   -0.4649    0.0000 C   0  0  0  0  0  0  0  0  0  0  0  0
   -1.6959   -3.6338    0.0000 C   0  0  2  0  0  0  0  0  0  0  0  0
   -1.0539   -4.4005    0.0000 C   0  0  0  0  0  0  0  0  0  0  0  0
   -4.5140   -2.6052    0.0000 C   0  0  0  0  0  0  0  0  0  0  0  0
   -5.4534   -2.2631    0.0000 O   0  0  0  0  0  0  0  0  0  0  0  0
   -6.2200   -2.9051    0.0000 C   0  0  0  0  0  0  0  0  0  0  0  0
   -4.3418   -3.5905    0.0000 C   0  0  0  0  0  0  0  0  0  0  0  0
   -3.4018   -3.9332    0.0000 C   0  0  0  0  0  0  0  0  0  0  0  0
   -2.6357   -3.2906    0.0000 C   0  0  0  0  0  0  0  0  0  0  0  0
   -2.8079   -2.3059    0.0000 C   0  0  0  0  0  0  0  0  0  0  0  0
   -3.7477   -1.9632    0.0000 C   0  0  0  0  0  0  0  0  0  0  0  0
  1  2  1  0  0  0  0
  2  3  2  0  0  0  0
  2 12  1  0  0  0  0
  3  4  1  0  0  0  0
  3  8  1  0  0  0  0
  4  5  1  0  0  0  0
  6  5  1  0  0  0  0
  6  7  1  6  0  0  0
  6 30  1  0  0  0  0
  6 31  1  0  0  0  0
  8  9  2  0  0  0  0
  9 10  1  0  0  0  0
  9 11  1  0  0  0  0
 11 12  2  0  0  0  0
 12 13  1  0  0  0  0
 13 14  2  0  0  0  0
 13 19  1  0  0  0  0
 14 15  1  0  0  0  0
 15 16  2  0  0  0  0
 15 28  1  0  0  0  0
 16 17  1  0  0  0  0
 16 20  1  0  0  0  0
 17 18  2  0  0  0  0
 17 19  1  0  0  0  0
 20 21  1  1  0  0  0
 20 25  1  0  0  0  0
 21 22  1  0  0  0  0
 21 23  1  0  0  0  0
 21 24  1  0  0  0  0
 25 26  1  0  0  0  0
 26 27  2  0  0  0  0
 26 28  1  0  0  0  0
 28 29  1  0  0  0  0
 30 31  1  0  0  0  0
 30 37  1  6  0  0  0
 32 33  1  0  0  0  0
 32 35  2  0  0  0  0
 32 39  1  0  0  0  0
 33 34  1  0  0  0  0
 35 36  1  0  0  0  0
 36 37  2  0  0  0  0
 37 38  1  0  0  0  0
 38 39  2  0  0  0  0
M  END
>  <ID> (INSCoV-074)
INSCoV-074

>  <HBA> (INSCoV-074)
5

>  <HBD> (INSCoV-074)
5

>  <MCE-18> (INSCoV-074)
113.974

>  <nRot> (INSCoV-074)
6

>  <TopoPSA> (INSCoV-074)
121.54

>  <chembl_closest> (INSCoV-074)
CHEMBL4103452

>  <chembl_max_sim> (INSCoV-074)
0.78

>  <nSC> (INSCoV-074)
3

>  <nAR> (INSCoV-074)
2

>  <MW> (INSCoV-074)
542.21

$$$$

  -ISIS-  -- StrEd -- 

 35 39  0  0  0  0  0  0  0  0999 V2000
    1.8989   -0.8959    0.0000 O   0  0  0  0  0  0  0  0  0  0  0  0
    1.9019   -1.8940    0.0000 C   0  0  0  0  0  0  0  0  0  0  0  0
    1.0390   -2.3960    0.0000 C   0  0  2  0  0  0  0  0  0  0  0  0
    0.1749   -1.9015    0.0000 N   0  0  0  0  0  0  0  0  0  0  0  0
    0.1755   -0.9062    0.0000 C   0  0  2  0  0  0  0  0  0  0  0  0
    1.0394   -0.4067    0.0000 C   0  0  0  0  0  0  0  0  0  0  0  0
    1.0384   -3.3834    0.0000 C   0  0  0  0  0  0  0  0  0  0  0  0
    0.1954   -3.9076    0.0000 C   0  0  0  0  0  0  0  0  0  0  0  0
    0.1687   -4.8989    0.0000 N   0  0  0  0  0  0  0  0  0  0  0  0
    1.0572   -5.4089    0.0000 C   0  0  0  0  0  0  0  0  0  0  0  0
    1.9033   -4.8854    0.0000 C   0  0  0  0  0  0  0  0  0  0  0  0
    2.7788   -5.4014    0.0000 C   0  0  0  0  0  0  0  0  0  0  0  0
    2.4396   -6.3303    0.0000 N   0  0  0  0  0  0  0  0  0  0  0  0
    1.9278   -3.8920    0.0000 C   0  0  0  0  0  0  0  0  0  0  0  0
    3.4312   -4.6180    0.0000 C   0  0  0  0  0  0  0  0  0  0  0  0
    3.7563   -5.5566    0.0000 C   0  0  0  0  0  0  0  0  0  0  0  0
    2.7681   -2.3911    0.0000 N   0  0  0  0  0  0  0  0  0  0  0  0
    3.6320   -1.8904    0.0000 C   0  0  0  0  0  0  0  0  0  0  0  0
   -2.2882   -0.0734    0.0000 C   0  0  0  0  0  0  0  0  0  0  0  0
   -1.6152   -0.8289    0.0000 C   0  0  0  0  0  0  0  0  0  0  0  0
   -0.6957   -0.4038    0.0000 C   0  0  1  0  0  0  0  0  0  0  0  0
   -0.7816    0.5794    0.0000 C   0  0  0  0  0  0  0  0  0  0  0  0
   -1.7751    0.7749    0.0000 C   0  0  0  0  0  0  0  0  0  0  0  0
   -2.3003    1.6473    0.0000 C   0  0  0  0  0  0  0  0  0  0  0  0
   -3.2805    1.6696    0.0000 C   0  0  0  0  0  0  0  0  0  0  0  0
   -3.7563    0.7852    0.0000 C   0  0  0  0  0  0  0  0  0  0  0  0
   -3.2712   -0.1007    0.0000 C   0  0  0  0  0  0  0  0  0  0  0  0
   -2.2882    3.3905    0.0000 C   0  0  0  0  0  0  0  0  0  0  0  0
   -3.2866    3.3938    0.0000 O   0  0  0  0  0  0  0  0  0  0  0  0
   -1.7925    2.5228    0.0000 N   0  0  0  0  0  0  0  0  0  0  0  0
   -1.0785    5.4757    0.0000 C   0  0  0  0  0  0  0  0  0  0  0  0
   -0.5836    6.3303    0.0000 O   0  0  0  0  0  0  0  0  0  0  0  0
   -2.0421    5.2140    0.0000 C   0  0  0  0  0  0  0  0  0  0  0  0
   -1.7907    4.2477    0.0000 N   0  0  0  0  0  0  0  0  0  0  0  0
   -0.8267    4.5098    0.0000 C   0  0  0  0  0  0  0  0  0  0  0  0
  1  2  2  0  0  0  0
  2  3  1  0  0  0  0
  2 17  1  0  0  0  0
  3  4  1  1  0  0  0
  3  7  1  0  0  0  0
  4  5  1  0  0  0  0
  5  6  1  1  0  0  0
  5 21  1  0  0  0  0
  7  8  2  0  0  0  0
  7 14  1  0  0  0  0
  8  9  1  0  0  0  0
  9 10  2  0  0  0  0
 10 11  1  0  0  0  0
 11 12  1  0  0  0  0
 11 14  2  0  0  0  0
 12 13  1  0  0  0  0
 12 15  1  0  0  0  0
 12 16  1  0  0  0  0
 15 16  1  0  0  0  0
 17 18  1  0  0  0  0
 19 20  1  0  0  0  0
 19 23  2  0  0  0  0
 19 27  1  0  0  0  0
 21 20  1  1  0  0  0
 21 22  1  0  0  0  0
 22 23  1  0  0  0  0
 23 24  1  0  0  0  0
 24 25  2  0  0  0  0
 24 30  1  0  0  0  0
 25 26  1  0  0  0  0
 26 27  2  0  0  0  0
 28 29  2  0  0  0  0
 28 30  1  0  0  0  0
 28 34  1  0  0  0  0
 31 32  1  0  0  0  0
 31 33  1  0  0  0  0
 31 35  1  0  0  0  0
 33 34  1  0  0  0  0
 34 35  1  0  0  0  0
M  END
>  <ID> (INSCoV-075)
INSCoV-075

>  <HBA> (INSCoV-075)
4

>  <HBD> (INSCoV-075)
8

>  <MCE-18> (INSCoV-075)
103.846

>  <nRot> (INSCoV-075)
7

>  <TopoPSA> (INSCoV-075)
132.61

>  <chembl_closest> (INSCoV-075)
CHEMBL3972992

>  <chembl_max_sim> (INSCoV-075)
0.71

>  <nSC> (INSCoV-075)
3

>  <nAR> (INSCoV-075)
2

>  <MW> (INSCoV-075)
478.27

$$$$

  -ISIS-  -- StrEd -- 

 35 40  0  0  0  0  0  0  0  0999 V2000
    5.9731   -0.3645    0.0000 N   0  0  0  0  0  0  0  0  0  0  0  0
    5.4704   -1.2293    0.0000 C   0  0  0  0  0  0  0  0  0  0  0  0
    5.9665   -2.0954    0.0000 O   0  0  0  0  0  0  0  0  0  0  0  0
    4.4614   -1.2281    0.0000 C   0  0  1  0  0  0  0  0  0  0  0  0
    3.7634   -1.9375    0.0000 C   0  0  0  0  0  0  0  0  0  0  0  0
    3.0677   -1.2252    0.0000 C   0  0  0  0  0  0  0  0  0  0  0  0
    2.3536   -1.9226    0.0000 C   0  0  0  0  0  0  0  0  0  0  0  0
    1.6484   -1.2156    0.0000 C   0  0  2  0  0  0  0  0  0  0  0  0
    0.6614   -1.2043    0.0000 C   0  0  0  0  0  0  0  0  0  0  0  0
    0.1695   -0.3312    0.0000 C   0  0  0  0  0  0  0  0  0  0  0  0
    0.6751    0.5289    0.0000 O   0  0  0  0  0  0  0  0  0  0  0  0
   -0.8193   -0.3306    0.0000 N   0  0  0  0  0  0  0  0  0  0  0  0
   -1.4262   -1.1400    0.0000 C   0  0  0  0  0  0  0  0  0  0  0  0
   -2.3720   -0.8565    0.0000 N   0  0  0  0  0  0  0  0  0  0  0  0
   -2.3577    0.1549    0.0000 C   0  0  0  0  0  0  0  0  0  0  0  0
   -3.0975    0.8458    0.0000 C   0  0  0  0  0  0  0  0  0  0  0  0
   -4.0594    0.5325    0.0000 C   0  0  0  0  0  0  0  0  0  0  0  0
   -5.0124    0.2245    0.0000 C   0  0  0  0  0  0  0  0  0  0  0  0
   -2.9182    1.8130    0.0000 C   0  0  0  0  0  0  0  0  0  0  0  0
   -1.9545    2.0954    0.0000 C   0  0  0  0  0  0  0  0  0  0  0  0
   -1.1915    1.4444    0.0000 C   0  0  0  0  0  0  0  0  0  0  0  0
   -1.4232    0.4854    0.0000 C   0  0  0  0  0  0  0  0  0  0  0  0
    2.3631   -0.5182    0.0000 C   0  0  0  0  0  0  0  0  0  0  0  0
    3.7663   -0.5158    0.0000 C   0  0  1  0  0  0  0  0  0  0  0  0
    3.7681    0.4717    0.0000 O   0  0  0  0  0  0  0  0  0  0  0  0
    5.4787    0.5015    0.0000 C   0  0  0  0  0  0  0  0  0  0  0  0
    7.8481    0.1215    0.0000 C   0  0  0  0  0  0  0  0  0  0  0  0
    6.9767   -0.3812    0.0000 C   0  0  0  0  0  0  0  0  0  0  0  0
    7.8278   -0.8839    0.0000 C   0  0  0  0  0  0  0  0  0  0  0  0
   -7.8481   -0.6844    0.0000 N   0  0  0  0  0  0  0  0  0  0  0  0
   -7.1339   -1.3735    0.0000 C   0  0  0  0  0  0  0  0  0  0  0  0
   -6.1571   -1.0614    0.0000 C   0  0  0  0  0  0  0  0  0  0  0  0
   -5.9755   -0.0852    0.0000 C   0  0  0  0  0  0  0  0  0  0  0  0
   -6.6902    0.6039    0.0000 C   0  0  0  0  0  0  0  0  0  0  0  0
   -7.6670    0.2913    0.0000 C   0  0  0  0  0  0  0  0  0  0  0  0
  1  2  1  0  0  0  0
  1 26  1  0  0  0  0
  1 28  1  0  0  0  0
  2  3  2  0  0  0  0
  4  2  1  1  0  0  0
  5  4  1  0  0  0  0
  4 24  1  0  0  0  0
  6  5  1  0  0  0  0
  6  7  1  0  0  0  0
  6 23  1  0  0  0  0
  6 24  1  0  0  0  0
  7  8  1  0  0  0  0
  8  9  1  6  0  0  0
  8 23  1  0  0  0  0
  9 10  1  0  0  0  0
 10 11  2  0  0  0  0
 10 12  1  0  0  0  0
 12 13  1  0  0  0  0
 12 22  1  0  0  0  0
 13 14  2  0  0  0  0
 14 15  1  0  0  0  0
 15 16  1  0  0  0  0
 15 22  2  0  0  0  0
 16 17  1  0  0  0  0
 16 19  2  0  0  0  0
 17 18  3  0  0  0  0
 18 33  1  0  0  0  0
 19 20  1  0  0  0  0
 20 21  2  0  0  0  0
 21 22  1  0  0  0  0
 24 25  1  1  0  0  0
 27 28  1  0  0  0  0
 27 29  1  0  0  0  0
 28 29  1  0  0  0  0
 30 31  2  0  0  0  0
 30 35  1  0  0  0  0
 31 32  1  0  0  0  0
 32 33  2  0  0  0  0
 33 34  1  0  0  0  0
 34 35  2  0  0  0  0
M  END
>  <ID> (INSCoV-076)
INSCoV-076

>  <HBA> (INSCoV-076)
5

>  <HBD> (INSCoV-076)
1

>  <MCE-18> (INSCoV-076)
148.5

>  <nRot> (INSCoV-076)
4

>  <TopoPSA> (INSCoV-076)
88.32

>  <chembl_closest> (INSCoV-076)
No

>  <chembl_max_sim> (INSCoV-076)
0.7

>  <nSC> (INSCoV-076)
3

>  <nAR> (INSCoV-076)
3

>  <MW> (INSCoV-076)
468.22

$$$$

  -ISIS-  -- StrEd -- 

 31 35  0  0  0  0  0  0  0  0999 V2000
   -2.7673   -3.7271    0.0000 O   0  0  0  0  0  0  0  0  0  0  0  0
   -3.3555   -2.9174    0.0000 C   0  0  0  0  0  0  0  0  0  0  0  0
   -2.9472   -2.0027    0.0000 N   0  0  0  0  0  0  0  0  0  0  0  0
   -1.9423   -1.9009    0.0000 C   0  0  2  0  0  0  0  0  0  0  0  0
   -1.3611   -2.7185    0.0000 C   0  0  0  0  0  0  0  0  0  0  0  0
   -0.3635   -2.6170    0.0000 C   0  0  0  0  0  0  0  0  0  0  0  0
    0.0512   -1.7149    0.0000 C   0  0  0  0  0  0  0  0  0  0  0  0
   -0.5377   -0.9028    0.0000 C   0  0  1  0  0  0  0  0  0  0  0  0
   -1.5365   -0.9950    0.0000 C   0  0  0  0  0  0  0  0  0  0  0  0
    0.4451   -0.6867    0.0000 C   0  0  0  0  0  0  0  0  0  0  0  0
    0.5499    0.3008    0.0000 C   0  0  2  0  0  0  0  0  0  0  0  0
    1.4152    0.7995    0.0000 N   0  0  0  0  0  0  0  0  0  0  0  0
    2.2797    0.3004    0.0000 C   0  0  0  0  0  0  0  0  0  0  0  0
    3.1493    0.7937    0.0000 C   0  0  0  0  0  0  0  0  0  0  0  0
    3.1489    1.7970    0.0000 N   0  0  0  0  0  0  0  0  0  0  0  0
    4.0181    2.2930    0.0000 C   0  0  0  0  0  0  0  0  0  0  0  0
    4.8821    1.7931    0.0000 C   0  0  0  0  0  0  0  0  0  0  0  0
    5.7522    2.2851    0.0000 N   0  0  0  0  0  0  0  0  0  0  0  0
    5.7528    3.2884    0.0000 C   0  0  0  0  0  0  0  0  0  0  0  0
    4.8931    3.7961    0.0000 C   0  0  0  0  0  0  0  0  0  0  0  0
    4.0278    3.2961    0.0000 C   0  0  0  0  0  0  0  0  0  0  0  0
    2.2892    2.3034    0.0000 C   0  0  0  0  0  0  0  0  0  0  0  0
    1.4240    1.8028    0.0000 C   0  0  0  0  0  0  0  0  0  0  0  0
   -0.3666    0.7160    0.0000 S   0  0  0  0  0  0  0  0  0  0  0  0
   -1.1703    1.2980    0.0000 O   0  0  0  0  0  0  0  0  0  0  0  0
    0.1343    1.5748    0.0000 O   0  0  0  0  0  0  0  0  0  0  0  0
   -1.0328   -0.0324    0.0000 N   0  0  0  0  0  0  0  0  0  0  0  0
   -5.7528   -3.1701    0.0000 C   0  0  0  0  0  0  0  0  0  0  0  0
   -5.1201   -2.3955    0.0000 C   0  0  0  0  0  0  0  0  0  0  0  0
   -4.3394   -3.0213    0.0000 C   0  0  0  0  0  0  0  0  0  0  0  0
   -4.9725   -3.7961    0.0000 C   0  0  0  0  0  0  0  0  0  0  0  0
  1  2  2  0  0  0  0
  2  3  1  0  0  0  0
  2 30  1  0  0  0  0
  4  3  1  1  0  0  0
  4  5  1  0  0  0  0
  4  9  1  0  0  0  0
  5  6  1  0  0  0  0
  6  7  1  0  0  0  0
  8  7  1  6  0  0  0
  8  9  1  0  0  0  0
  8 10  1  0  0  0  0
  8 27  1  0  0  0  0
 10 11  1  0  0  0  0
 11 12  1  1  0  0  0
 11 24  1  0  0  0  0
 12 13  1  0  0  0  0
 12 23  1  0  0  0  0
 13 14  1  0  0  0  0
 14 15  1  0  0  0  0
 15 16  1  0  0  0  0
 15 22  1  0  0  0  0
 16 17  2  0  0  0  0
 16 21  1  0  0  0  0
 17 18  1  0  0  0  0
 18 19  2  0  0  0  0
 19 20  1  0  0  0  0
 20 21  2  0  0  0  0
 22 23  1  0  0  0  0
 24 25  2  0  0  0  0
 24 26  2  0  0  0  0
 24 27  1  0  0  0  0
 28 29  1  0  0  0  0
 28 31  1  0  0  0  0
 29 30  1  0  0  0  0
 30 31  1  0  0  0  0
M  END
>  <ID> (INSCoV-077)
INSCoV-077

>  <HBA> (INSCoV-077)
4

>  <HBD> (INSCoV-077)
3

>  <MCE-18> (INSCoV-077)
135.579

>  <nRot> (INSCoV-077)
4

>  <TopoPSA> (INSCoV-077)
103.02

>  <chembl_closest> (INSCoV-077)
CHEMBL2177481

>  <chembl_max_sim> (INSCoV-077)
0.75

>  <nSC> (INSCoV-077)
3

>  <nAR> (INSCoV-077)
1

>  <MW> (INSCoV-077)
447.23

$$$$

  -ISIS-  -- StrEd -- 

 31 34  0  0  0  0  0  0  0  0999 V2000
   -4.8233    0.1679    0.0000 O   0  0  0  0  0  0  0  0  0  0  0  0
   -4.6519   -0.8170    0.0000 C   0  0  0  0  0  0  0  0  0  0  0  0
   -5.4196   -1.4576    0.0000 C   0  0  0  0  0  0  0  0  0  0  0  0
   -6.1837   -0.8133    0.0000 N   0  0  0  0  0  0  0  0  0  0  0  0
   -3.7133   -1.1616    0.0000 N   0  0  0  0  0  0  0  0  0  0  0  0
   -2.9450   -0.5204    0.0000 C   0  0  0  0  0  0  0  0  0  0  0  0
   -3.1164    0.4646    0.0000 C   0  0  0  0  0  0  0  0  0  0  0  0
   -2.3486    1.1057    0.0000 C   0  0  0  0  0  0  0  0  0  0  0  0
   -1.4099    0.7612    0.0000 C   0  0  0  0  0  0  0  0  0  0  0  0
   -1.2387   -0.2247    0.0000 C   0  0  0  0  0  0  0  0  0  0  0  0
   -0.3001   -0.5683    0.0000 N   0  0  0  0  0  0  0  0  0  0  0  0
    0.4676    0.0723    0.0000 C   0  0  0  0  0  0  0  0  0  0  0  0
    0.2968    1.0572    0.0000 O   0  0  0  0  0  0  0  0  0  0  0  0
    1.4062   -0.2723    0.0000 C   0  0  0  0  0  0  0  0  0  0  0  0
    2.1741    0.3689    0.0000 C   0  0  0  0  0  0  0  0  0  0  0  0
    3.1131    0.0243    0.0000 C   0  0  0  0  0  0  0  0  0  0  0  0
    3.8808    0.6649    0.0000 C   0  0  0  0  0  0  0  0  0  0  0  0
    3.7094    1.6505    0.0000 C   0  0  0  0  0  0  0  0  0  0  0  0
    4.4774    2.2911    0.0000 C   0  0  0  0  0  0  0  0  0  0  0  0
    5.4160    1.9467    0.0000 C   0  0  0  0  0  0  0  0  0  0  0  0
    5.5872    0.9616    0.0000 C   0  0  0  0  0  0  0  0  0  0  0  0
    4.8200    0.3206    0.0000 C   0  0  0  0  0  0  0  0  0  0  0  0
    4.9906   -0.6646    0.0000 C   0  0  0  0  0  0  0  0  0  0  0  0
    3.2843   -0.9612    0.0000 C   0  0  0  0  0  0  0  0  0  0  0  0
    2.5166   -1.6016    0.0000 C   0  0  0  0  0  0  0  0  0  0  0  0
    2.6874   -2.5873    0.0000 F   0  0  0  0  0  0  0  0  0  0  0  0
    1.5776   -1.2572    0.0000 C   0  0  0  0  0  0  0  0  0  0  0  0
   -2.0064   -0.8649    0.0000 C   0  0  0  0  0  0  0  0  0  0  0  0
    6.1837    2.5873    0.0000 F   0  0  0  0  0  0  0  0  0  0  0  0
   -4.9216   -2.3255    0.0000 C   0  0  0  0  0  0  0  0  0  0  0  0
   -5.9215   -2.3231    0.0000 C   0  0  0  0  0  0  0  0  0  0  0  0
  1  2  2  0  0  0  0
  2  3  1  0  0  0  0
  2  5  1  0  0  0  0
  3  4  1  0  0  0  0
  3 30  1  0  0  0  0
  3 31  1  0  0  0  0
  5  6  1  0  0  0  0
  6  7  2  0  0  0  0
  6 28  1  0  0  0  0
  7  8  1  0  0  0  0
  8  9  2  0  0  0  0
  9 10  1  0  0  0  0
 10 11  1  0  0  0  0
 10 28  2  0  0  0  0
 11 12  1  0  0  0  0
 12 13  2  0  0  0  0
 12 14  1  0  0  0  0
 14 15  2  0  0  0  0
 14 27  1  0  0  0  0
 15 16  1  0  0  0  0
 16 17  1  0  0  0  0
 16 24  2  0  0  0  0
 17 18  2  0  0  0  0
 17 22  1  0  0  0  0
 18 19  1  0  0  0  0
 19 20  2  0  0  0  0
 20 21  1  0  0  0  0
 20 29  1  0  0  0  0
 21 22  2  0  0  0  0
 22 23  1  0  0  0  0
 24 25  1  0  0  0  0
 25 26  1  0  0  0  0
 25 27  2  0  0  0  0
 30 31  1  0  0  0  0
M  END
>  <ID> (INSCoV-078)
INSCoV-078

>  <HBA> (INSCoV-078)
2

>  <HBD> (INSCoV-078)
5

>  <MCE-18> (INSCoV-078)
55.357

>  <nRot> (INSCoV-078)
5

>  <TopoPSA> (INSCoV-078)
84.22

>  <chembl_closest> (INSCoV-078)
No

>  <chembl_max_sim> (INSCoV-078)
0.7

>  <nSC> (INSCoV-078)
0

>  <nAR> (INSCoV-078)
3

>  <MW> (INSCoV-078)
421.16

$$$$

  -ISIS-  -- StrEd -- 

 44 48  0  0  0  0  0  0  0  0999 V2000
   -8.6975   -0.2862    0.0000 C   0  0  0  0  0  0  0  0  0  0  0  0
   -7.8223   -0.7904    0.0000 C   0  0  0  0  0  0  0  0  0  0  0  0
   -7.8223   -1.8009    0.0000 C   0  0  0  0  0  0  0  0  0  0  0  0
   -6.9471   -0.2848    0.0000 N   0  0  0  0  0  0  0  0  0  0  0  0
   -6.0725   -0.7898    0.0000 C   0  0  0  0  0  0  0  0  0  0  0  0
   -5.1965   -0.2854    0.0000 C   0  0  1  0  0  0  0  0  0  0  0  0
   -4.3218   -0.7931    0.0000 C   0  0  0  0  0  0  0  0  0  0  0  0
   -4.3246   -1.8031    0.0000 O   0  0  0  0  0  0  0  0  0  0  0  0
   -3.4453   -0.2908    0.0000 N   0  0  0  0  0  0  0  0  0  0  0  0
   -2.5712   -0.7991    0.0000 C   0  0  0  0  0  0  0  0  0  0  0  0
   -1.6941   -0.2968    0.0000 C   0  0  0  0  0  0  0  0  0  0  0  0
   -1.6922    0.7140    0.0000 O   0  0  0  0  0  0  0  0  0  0  0  0
   -0.8282   -0.7977    0.0000 N   0  0  0  0  0  0  0  0  0  0  0  0
   -0.7165   -1.8069    0.0000 C   0  0  0  0  0  0  0  0  0  0  0  0
    0.2658   -2.0156    0.0000 C   0  0  0  0  0  0  0  0  0  0  0  0
    0.7787   -1.1396    0.0000 C   0  0  1  0  0  0  0  0  0  0  0  0
    1.7800   -1.0372    0.0000 C   0  0  0  0  0  0  0  0  0  0  0  0
    2.1825   -0.1152    0.0000 C   0  0  0  0  0  0  0  0  0  0  0  0
    3.2170   -0.0294    0.0000 C   0  0  0  0  0  0  0  0  0  0  0  0
    3.8090   -0.8162    0.0000 C   0  0  0  0  0  0  0  0  0  0  0  0
    4.7825   -0.9331    0.0000 N   0  0  0  0  0  0  0  0  0  0  0  0
    5.0103   -1.9251    0.0000 C   0  0  0  0  0  0  0  0  0  0  0  0
    5.9279   -2.3323    0.0000 C   0  0  0  0  0  0  0  0  0  0  0  0
    6.7444   -1.7338    0.0000 C   0  0  0  0  0  0  0  0  0  0  0  0
    7.6666   -2.1515    0.0000 C   0  0  0  0  0  0  0  0  0  0  0  0
    7.7715   -3.1463    0.0000 C   0  0  0  0  0  0  0  0  0  0  0  0
    6.9536   -3.7489    0.0000 C   0  0  0  0  0  0  0  0  0  0  0  0
    6.0295   -3.3265    0.0000 C   0  0  0  0  0  0  0  0  0  0  0  0
    4.1232   -2.4057    0.0000 N   0  0  0  0  0  0  0  0  0  0  0  0
    3.3667   -1.7311    0.0000 C   0  0  0  0  0  0  0  0  0  0  0  0
    2.3429   -1.8493    0.0000 C   0  0  0  0  0  0  0  0  0  0  0  0
    0.0981   -0.3911    0.0000 C   0  0  0  0  0  0  0  0  0  0  0  0
   -5.1957    0.7363    0.0000 C   0  0  0  0  0  0  0  0  0  0  0  0
   -4.3112    1.2122    0.0000 C   0  0  0  0  0  0  0  0  0  0  0  0
   -4.3107    2.2491    0.0000 C   0  0  0  0  0  0  0  0  0  0  0  0
   -5.1957    2.7278    0.0000 C   0  0  0  0  0  0  0  0  0  0  0  0
   -5.1957    3.7489    0.0000 F   0  0  0  0  0  0  0  0  0  0  0  0
   -6.0809    2.2505    0.0000 C   0  0  0  0  0  0  0  0  0  0  0  0
   -6.0804    1.2122    0.0000 C   0  0  0  0  0  0  0  0  0  0  0  0
   -6.9482    0.7127    0.0000 O   0  0  0  0  0  0  0  0  0  0  0  0
   -7.8256    1.2130    0.0000 C   0  0  0  0  0  0  0  0  0  0  0  0
    6.6413   -0.7390    0.0000 C   0  0  0  0  0  0  0  0  0  0  0  0
    8.6975   -3.5714    0.0000 F   0  0  0  0  0  0  0  0  0  0  0  0
   -6.9471    0.2202    0.0000 H   0  0  0  0  0  0  0  0  0  0  0  0
  1  2  1  0  0  0  0
  2  3  1  0  0  0  0
  2  4  1  0  0  0  0
  4  5  1  0  0  0  0
  6  5  1  6  0  0  0
  6  7  1  0  0  0  0
  6 33  1  0  0  0  0
  7  8  2  0  0  0  0
  7  9  1  0  0  0  0
  9 10  1  0  0  0  0
 10 11  1  0  0  0  0
 11 12  2  0  0  0  0
 11 13  1  0  0  0  0
 13 14  1  0  0  0  0
 13 32  1  0  0  0  0
 14 15  1  0  0  0  0
 15 16  1  0  0  0  0
 16 17  1  6  0  0  0
 16 32  1  0  0  0  0
 17 18  2  0  0  0  0
 17 31  1  0  0  0  0
 18 19  1  0  0  0  0
 19 20  2  0  0  0  0
 20 21  1  0  0  0  0
 20 30  1  0  0  0  0
 21 22  1  0  0  0  0
 22 23  1  0  0  0  0
 22 29  2  0  0  0  0
 23 24  2  0  0  0  0
 23 28  1  0  0  0  0
 24 25  1  0  0  0  0
 24 42  1  0  0  0  0
 25 26  2  0  0  0  0
 26 27  1  0  0  0  0
 26 43  1  0  0  0  0
 27 28  2  0  0  0  0
 29 30  1  0  0  0  0
 30 31  2  0  0  0  0
 33 34  2  0  0  0  0
 33 39  1  0  0  0  0
 34 35  1  0  0  0  0
 35 36  2  0  0  0  0
 36 37  1  0  0  0  0
 36 38  1  0  0  0  0
 38 39  2  0  0  0  0
 39 40  1  0  0  0  0
 40 41  1  0  0  0  0
  4 44  1  0  0  0  0
M  END
>  <ID> (INSCoV-079)
INSCoV-079

>  <HBA> (INSCoV-079)
4

>  <HBD> (INSCoV-079)
4

>  <MCE-18> (INSCoV-079)
98.511

>  <nRot> (INSCoV-079)
10

>  <TopoPSA> (INSCoV-079)
99.35

>  <chembl_closest> (INSCoV-079)
CHEMBL3646846

>  <chembl_max_sim> (INSCoV-079)
0.8

>  <nSC> (INSCoV-079)
2

>  <nAR> (INSCoV-079)
4

>  <MW> (INSCoV-079)
589.29

$$$$

  -ISIS-  -- StrEd -- 

 36 40  0  0  0  0  0  0  0  0999 V2000
    2.0976   -3.6225    0.0000 C   0  0  0  0  0  0  0  0  0  0  0  0
    2.0993   -2.6221    0.0000 O   0  0  0  0  0  0  0  0  0  0  0  0
    1.2311   -4.1206    0.0000 N   0  0  0  0  0  0  0  0  0  0  0  0
    0.3662   -3.6197    0.0000 C   0  0  1  0  0  0  0  0  0  0  0  0
   -0.5009   -4.1201    0.0000 C   0  0  0  0  0  0  0  0  0  0  0  0
   -1.3582   -3.6253    0.0000 C   0  0  0  0  0  0  0  0  0  0  0  0
   -2.2365   -4.1069    0.0000 C   0  0  0  0  0  0  0  0  0  0  0  0
   -3.1121   -3.6250    0.0000 C   0  0  0  0  0  0  0  0  0  0  0  0
   -3.0896   -2.6246    0.0000 C   0  0  0  0  0  0  0  0  0  0  0  0
   -2.2331   -2.1057    0.0000 C   0  0  0  0  0  0  0  0  0  0  0  0
   -1.3786   -2.6249    0.0000 C   0  0  0  0  0  0  0  0  0  0  0  0
    0.3676   -2.6172    0.0000 C   0  0  2  0  0  0  0  0  0  0  0  0
   -0.4987   -2.1170    0.0000 O   0  0  0  0  0  0  0  0  0  0  0  0
    1.2358   -2.1159    0.0000 C   0  0  0  0  0  0  0  0  0  0  0  0
    1.2364   -1.1239    0.0000 N   0  0  0  0  0  0  0  0  0  0  0  0
    0.4265   -0.5315    0.0000 C   0  0  0  0  0  0  0  0  0  0  0  0
   -0.5273   -0.8570    0.0000 O   0  0  0  0  0  0  0  0  0  0  0  0
    0.7296    0.4102    0.0000 N   0  0  0  0  0  0  0  0  0  0  0  0
    1.7342    0.4187    0.0000 C   0  0  1  0  0  0  0  0  0  0  0  0
    2.3190    1.2212    0.0000 N   0  0  0  0  0  0  0  0  0  0  0  0
    1.9138    2.1439    0.0000 C   0  0  0  0  0  0  0  0  0  0  0  0
    0.9190    2.2390    0.0000 C   0  0  0  0  0  0  0  0  0  0  0  0
    0.5258    3.1626    0.0000 C   0  0  0  0  0  0  0  0  0  0  0  0
    1.1031    3.9761    0.0000 C   0  0  0  0  0  0  0  0  0  0  0  0
    0.7030    4.8812    0.0000 C   0  0  0  0  0  0  0  0  0  0  0  0
    2.0956    3.8546    0.0000 C   0  0  0  0  0  0  0  0  0  0  0  0
    2.5137    2.9417    0.0000 C   0  0  0  0  0  0  0  0  0  0  0  0
    2.0401   -0.5315    0.0000 C   0  0  0  0  0  0  0  0  0  0  0  0
   -3.9645   -2.1184    0.0000 F   0  0  0  0  0  0  0  0  0  0  0  0
   -0.2918    4.9888    0.0000 N   0  0  0  0  0  0  0  0  0  0  0  0
    2.9367   -0.0865    0.0000 C   0  0  0  0  0  0  0  0  0  0  0  0
    3.3907   -0.9791    0.0000 C   0  0  0  0  0  0  0  0  0  0  0  0
    2.4947   -1.4235    0.0000 C   0  0  0  0  0  0  0  0  0  0  0  0
    3.9645   -4.1352    0.0000 C   0  0  0  0  0  0  0  0  0  0  0  0
    2.9535   -4.1189    0.0000 C   0  0  0  0  0  0  0  0  0  0  0  0
    3.4699   -4.9888    0.0000 C   0  0  0  0  0  0  0  0  0  0  0  0
  1  2  2  0  0  0  0
  1  3  1  0  0  0  0
  1 35  1  0  0  0  0
  4  3  1  0  0  0  0
  4  5  1  1  0  0  0
  4 12  1  0  0  0  0
  5  6  1  0  0  0  0
  6  7  2  0  0  0  0
  6 11  1  0  0  0  0
  7  8  1  0  0  0  0
  8  9  2  0  0  0  0
  9 10  1  0  0  0  0
  9 29  1  0  0  0  0
 10 11  2  0  0  0  0
 12 13  1  6  0  0  0
 12 14  1  0  0  0  0
 14 15  1  0  0  0  0
 15 16  1  0  0  0  0
 15 28  1  0  0  0  0
 16 17  2  0  0  0  0
 16 18  1  0  0  0  0
 18 19  1  0  0  0  0
 19 20  1  1  0  0  0
 19 28  1  0  0  0  0
 20 21  1  0  0  0  0
 21 22  2  0  0  0  0
 21 27  1  0  0  0  0
 22 23  1  0  0  0  0
 23 24  2  0  0  0  0
 24 25  1  0  0  0  0
 24 26  1  0  0  0  0
 25 30  1  0  0  0  0
 26 27  2  0  0  0  0
 28 31  1  0  0  0  0
 28 33  1  0  0  0  0
 31 32  1  0  0  0  0
 32 33  1  0  0  0  0
 34 35  1  0  0  0  0
 34 36  1  0  0  0  0
 35 36  1  0  0  0  0
M  END
>  <ID> (INSCoV-080)
INSCoV-080

>  <HBA> (INSCoV-080)
3

>  <HBD> (INSCoV-080)
7

>  <MCE-18> (INSCoV-080)
127.6

>  <nRot> (INSCoV-080)
10

>  <TopoPSA> (INSCoV-080)
119.72

>  <chembl_closest> (INSCoV-080)
CHEMBL1455811

>  <chembl_max_sim> (INSCoV-080)
0.77

>  <nSC> (INSCoV-080)
3

>  <nAR> (INSCoV-080)
2

>  <MW> (INSCoV-080)
495.26

$$$$

  -ISIS-  -- StrEd -- 

 37 40  0  0  0  0  0  0  0  0999 V2000
   -5.1943    0.4737    0.0000 C   0  0  0  0  0  0  0  0  0  0  0  0
   -4.3288   -0.0265    0.0000 O   0  0  0  0  0  0  0  0  0  0  0  0
   -4.3292   -1.0267    0.0000 C   0  0  0  0  0  0  0  0  0  0  0  0
   -5.1957   -1.5260    0.0000 C   0  0  0  0  0  0  0  0  0  0  0  0
   -5.1966   -2.5258    0.0000 C   0  0  0  0  0  0  0  0  0  0  0  0
   -6.0631   -3.0257    0.0000 O   0  0  0  0  0  0  0  0  0  0  0  0
   -4.3311   -3.0270    0.0000 C   0  0  0  0  0  0  0  0  0  0  0  0
   -3.4647   -2.5274    0.0000 C   0  0  0  0  0  0  0  0  0  0  0  0
   -3.4637   -1.5273    0.0000 C   0  0  0  0  0  0  0  0  0  0  0  0
   -2.5973   -1.0283    0.0000 N   0  0  0  0  0  0  0  0  0  0  0  0
   -1.7318   -1.5288    0.0000 C   0  0  0  0  0  0  0  0  0  0  0  0
   -1.7327   -2.5291    0.0000 O   0  0  0  0  0  0  0  0  0  0  0  0
   -0.8653   -1.0296    0.0000 N   0  0  0  0  0  0  0  0  0  0  0  0
   -0.8644   -0.0297    0.0000 C   0  0  0  0  0  0  0  0  0  0  0  0
   -1.7299    0.4714    0.0000 C   0  0  0  0  0  0  0  0  0  0  0  0
   -1.7295    1.4712    0.0000 N   0  0  0  0  0  0  0  0  0  0  0  0
   -0.8630    1.9705    0.0000 C   0  0  0  0  0  0  0  0  0  0  0  0
   -0.8621    2.9705    0.0000 C   0  0  0  0  0  0  0  0  0  0  0  0
   -1.7276    3.4715    0.0000 O   0  0  0  0  0  0  0  0  0  0  0  0
   -2.5940    2.9722    0.0000 C   0  0  0  0  0  0  0  0  0  0  0  0
   -2.5950    1.9720    0.0000 C   0  0  0  0  0  0  0  0  0  0  0  0
    0.0002   -1.5302    0.0000 C   0  0  0  0  0  0  0  0  0  0  0  0
    0.8666   -1.0309    0.0000 C   0  0  0  0  0  0  0  0  0  0  0  0
    0.8676   -0.0311    0.0000 O   0  0  0  0  0  0  0  0  0  0  0  0
    1.7327   -1.5321    0.0000 N   0  0  0  0  0  0  0  0  0  0  0  0
    1.7318   -2.5315    0.0000 C   0  0  0  0  0  0  0  0  0  0  0  0
    0.7465   -2.7045    0.0000 C   0  0  0  0  0  0  0  0  0  0  0  0
    2.5992   -1.0322    0.0000 C   0  0  0  0  0  0  0  0  0  0  0  0
    2.7164   -2.7064    0.0000 C   0  0  0  0  0  0  0  0  0  0  0  0
    2.0732   -3.4715    0.0000 C   0  0  0  0  0  0  0  0  0  0  0  0
    5.1957   -2.5342    0.0000 C   0  0  0  0  0  0  0  0  0  0  0  0
    5.1966   -1.5343    0.0000 C   0  0  0  0  0  0  0  0  0  0  0  0
    6.0631   -1.0351    0.0000 C   0  0  0  0  0  0  0  0  0  0  0  0
    4.3311   -1.0338    0.0000 C   0  0  0  0  0  0  0  0  0  0  0  0
    3.4647   -1.5330    0.0000 C   0  0  0  0  0  0  0  0  0  0  0  0
    3.4637   -2.5328    0.0000 N   0  0  0  0  0  0  0  0  0  0  0  0
    4.3292   -3.0340    0.0000 C   0  0  0  0  0  0  0  0  0  0  0  0
  1  2  1  0  0  0  0
  2  3  1  0  0  0  0
  3  4  2  0  0  0  0
  3  9  1  0  0  0  0
  4  5  1  0  0  0  0
  5  6  1  0  0  0  0
  5  7  2  0  0  0  0
  7  8  1  0  0  0  0
  8  9  2  0  0  0  0
  9 10  1  0  0  0  0
 10 11  1  0  0  0  0
 11 12  2  0  0  0  0
 11 13  1  0  0  0  0
 13 14  1  0  0  0  0
 13 22  1  0  0  0  0
 14 15  1  0  0  0  0
 15 16  1  0  0  0  0
 16 17  1  0  0  0  0
 16 21  1  0  0  0  0
 17 18  1  0  0  0  0
 18 19  1  0  0  0  0
 19 20  1  0  0  0  0
 20 21  1  0  0  0  0
 22 23  1  0  0  0  0
 23 24  2  0  0  0  0
 23 25  1  0  0  0  0
 25 26  1  0  0  0  0
 25 28  1  0  0  0  0
 26 27  1  0  0  0  0
 26 29  1  0  0  0  0
 26 30  1  0  0  0  0
 28 35  1  0  0  0  0
 29 30  1  0  0  0  0
 31 32  2  0  0  0  0
 31 37  1  0  0  0  0
 32 33  1  0  0  0  0
 32 34  1  0  0  0  0
 34 35  2  0  0  0  0
 35 36  1  0  0  0  0
 36 37  2  0  0  0  0
M  END
>  <ID> (INSCoV-081)
INSCoV-081

>  <HBA> (INSCoV-081)
6

>  <HBD> (INSCoV-081)
3

>  <MCE-18> (INSCoV-081)
58.537

>  <nRot> (INSCoV-081)
10

>  <TopoPSA> (INSCoV-081)
107.47

>  <chembl_closest> (INSCoV-081)
No

>  <chembl_max_sim> (INSCoV-081)
0.7

>  <nSC> (INSCoV-081)
0

>  <nAR> (INSCoV-081)
2

>  <MW> (INSCoV-081)
511.28

$$$$

  -ISIS-  -- StrEd -- 

 47 52  0  0  0  0  0  0  0  0999 V2000
   -0.8694    3.7482    0.0000 O   0  0  0  0  0  0  0  0  0  0  0  0
   -1.7350    3.2470    0.0000 C   0  0  0  0  0  0  0  0  0  0  0  0
   -1.7341    2.2467    0.0000 C   0  0  0  0  0  0  0  0  0  0  0  0
   -0.8675    1.7479    0.0000 C   0  0  0  0  0  0  0  0  0  0  0  0
   -0.8675    0.7479    0.0000 C   0  0  0  0  0  0  0  0  0  0  0  0
   -0.0004    0.2487    0.0000 C   0  0  0  0  0  0  0  0  0  0  0  0
    0.0000   -0.7517    0.0000 C   0  0  0  0  0  0  0  0  0  0  0  0
    0.8667   -1.2514    0.0000 C   0  0  0  0  0  0  0  0  0  0  0  0
    1.7322   -0.7509    0.0000 C   0  0  0  0  0  0  0  0  0  0  0  0
    1.7316    0.2495    0.0000 C   0  0  0  0  0  0  0  0  0  0  0  0
    0.8656    0.7479    0.0000 C   0  0  0  0  0  0  0  0  0  0  0  0
    2.5972    0.7509    0.0000 S   0  0  0  0  0  0  0  0  0  0  0  0
    1.9537    1.5158    0.0000 O   0  0  0  0  0  0  0  0  0  0  0  0
    3.2394    1.5167    0.0000 O   0  0  0  0  0  0  0  0  0  0  0  0
    3.4645    0.2501    0.0000 C   0  0  0  0  0  0  0  0  0  0  0  0
    3.4645   -0.7490    0.0000 C   0  0  0  0  0  0  0  0  0  0  0  0
    2.5987   -1.2495    0.0000 N   0  0  0  0  0  0  0  0  0  0  0  0
    2.5997   -2.2494    0.0000 C   0  0  0  0  0  0  0  0  0  0  0  0
    1.7341   -2.7501    0.0000 O   0  0  0  0  0  0  0  0  0  0  0  0
    3.4664   -2.7501    0.0000 C   0  0  0  0  0  0  0  0  0  0  0  0
    3.4666   -3.7490    0.0000 C   0  0  0  0  0  0  0  0  0  0  0  0
    2.6016   -4.2497    0.0000 C   0  0  0  0  0  0  0  0  0  0  0  0
    2.6021   -5.2501    0.0000 C   0  0  0  0  0  0  0  0  0  0  0  0
    3.4685   -5.7493    0.0000 C   0  0  0  0  0  0  0  0  0  0  0  0
    4.3341   -5.2482    0.0000 C   0  0  0  0  0  0  0  0  0  0  0  0
    4.3333   -4.2493    0.0000 C   0  0  0  0  0  0  0  0  0  0  0  0
   -2.6010    3.7467    0.0000 C   0  0  0  0  0  0  0  0  0  0  0  0
   -2.6021    4.7466    0.0000 C   0  0  0  0  0  0  0  0  0  0  0  0
   -1.7365    5.2474    0.0000 C   0  0  0  0  0  0  0  0  0  0  0  0
   -0.8698    4.7485    0.0000 C   0  0  0  0  0  0  0  0  0  0  0  0
   -0.0042    5.2493    0.0000 C   0  0  0  0  0  0  0  0  0  0  0  0
   -0.0053    6.2488    0.0000 C   0  0  0  0  0  0  0  0  0  0  0  0
   -0.8713    6.7478    0.0000 C   0  0  0  0  0  0  0  0  0  0  0  0
   -1.7369    6.2482    0.0000 C   0  0  0  0  0  0  0  0  0  0  0  0
   -3.4685    5.2459    0.0000 C   0  0  0  0  0  0  0  0  0  0  0  0
   -4.3341    4.7452    0.0000 C   0  0  0  0  0  0  0  0  0  0  0  0
   -4.3339    3.7452    0.0000 N   0  0  0  0  0  0  0  0  0  0  0  0
   -3.4666    3.2462    0.0000 C   0  0  0  0  0  0  0  0  0  0  0  0
   -3.4664    2.2456    0.0000 C   0  0  0  0  0  0  0  0  0  0  0  0
   -4.3320    1.7449    0.0000 C   0  0  0  0  0  0  0  0  0  0  0  0
   -4.3314    0.7452    0.0000 C   0  0  0  0  0  0  0  0  0  0  0  0
   -3.4647    0.2457    0.0000 N   0  0  0  0  0  0  0  0  0  0  0  0
   -2.5991    0.7464    0.0000 C   0  0  0  0  0  0  0  0  0  0  0  0
   -2.5997    1.7464    0.0000 C   0  0  0  0  0  0  0  0  0  0  0  0
    3.4691   -6.7493    0.0000 O   0  0  0  0  0  0  0  0  0  0  0  0
    0.8603    6.7493    0.0000 F   0  0  0  0  0  0  0  0  0  0  0  0
   -3.4639   -0.7547    0.0000 C   0  0  0  0  0  0  0  0  0  0  0  0
  1  2  2  0  0  0  0
  2  3  1  0  0  0  0
  2 27  1  0  0  0  0
  3  4  1  0  0  0  0
  4  5  1  0  0  0  0
  5  6  1  0  0  0  0
  6  7  2  0  0  0  0
  6 11  1  0  0  0  0
  7  8  1  0  0  0  0
  8  9  2  0  0  0  0
  9 10  1  0  0  0  0
  9 17  1  0  0  0  0
 10 11  2  0  0  0  0
 10 12  1  0  0  0  0
 12 13  2  0  0  0  0
 12 14  2  0  0  0  0
 12 15  1  0  0  0  0
 15 16  1  0  0  0  0
 16 17  1  0  0  0  0
 17 18  1  0  0  0  0
 18 19  2  0  0  0  0
 18 20  1  0  0  0  0
 20 21  1  0  0  0  0
 21 22  2  0  0  0  0
 21 26  1  0  0  0  0
 22 23  1  0  0  0  0
 23 24  2  0  0  0  0
 24 25  1  0  0  0  0
 24 45  1  0  0  0  0
 25 26  2  0  0  0  0
 27 28  1  0  0  0  0
 27 38  2  0  0  0  0
 28 29  1  0  0  0  0
 28 35  2  0  0  0  0
 29 30  2  0  0  0  0
 29 34  1  0  0  0  0
 30 31  1  0  0  0  0
 31 32  2  0  0  0  0
 32 33  1  0  0  0  0
 32 46  1  0  0  0  0
 33 34  2  0  0  0  0
 35 36  1  0  0  0  0
 36 37  2  0  0  0  0
 37 38  1  0  0  0  0
 39 38  1  0  0  0  0
 39 40  1  0  0  0  0
 39 44  1  0  0  0  0
 40 41  1  0  0  0  0
 41 42  1  0  0  0  0
 42 43  1  0  0  0  0
 42 47  1  0  0  0  0
 43 44  1  0  0  0  0
M  END
>  <ID> (INSCoV-082)
INSCoV-082

>  <HBA> (INSCoV-082)
6

>  <HBD> (INSCoV-082)
2

>  <MCE-18> (INSCoV-082)
82.286

>  <nRot> (INSCoV-082)
9

>  <TopoPSA> (INSCoV-082)
116.26

>  <chembl_closest> (INSCoV-082)
CHEMBL3643601

>  <chembl_max_sim> (INSCoV-082)
0.78

>  <nSC> (INSCoV-082)
0

>  <nAR> (INSCoV-082)
4

>  <MW> (INSCoV-082)
655.25

$$$$

  -ISIS-  -- StrEd -- 

 42 48  0  0  0  0  0  0  0  0999 V2000
    5.2563   -3.9197    0.0000 N   0  0  0  0  0  0  0  0  0  0  0  0
    4.2839   -3.7472    0.0000 C   0  0  0  0  0  0  0  0  0  0  0  0
    4.2763   -2.7441    0.0000 C   0  0  0  0  0  0  0  0  0  0  0  0
    3.4123   -2.2432    0.0000 C   0  0  0  0  0  0  0  0  0  0  0  0
    3.4119   -1.2445    0.0000 C   0  0  1  0  0  0  0  0  0  0  0  0
    2.5478   -0.7476    0.0000 N   0  0  0  0  0  0  0  0  0  0  0  0
    2.5492    0.2480    0.0000 C   0  0  0  0  0  0  0  0  0  0  0  0
    3.4141    0.7454    0.0000 O   0  0  0  0  0  0  0  0  0  0  0  0
    1.6918    0.7400    0.0000 N   0  0  0  0  0  0  0  0  0  0  0  0
    0.8100    0.2618    0.0000 C   0  0  0  0  0  0  0  0  0  0  0  0
   -0.0398    0.7467    0.0000 C   0  0  0  0  0  0  0  0  0  0  0  0
   -0.0531    1.7560    0.0000 C   0  0  0  0  0  0  0  0  0  0  0  0
   -0.9034    2.2414    0.0000 C   0  0  0  0  0  0  0  0  0  0  0  0
   -1.7865    1.7627    0.0000 C   0  0  0  0  0  0  0  0  0  0  0  0
   -1.7909    0.7458    0.0000 C   0  0  0  0  0  0  0  0  0  0  0  0
   -0.9234    0.2613    0.0000 C   0  0  0  0  0  0  0  0  0  0  0  0
   -1.7749   -1.2405    0.0000 C   0  0  0  0  0  0  0  0  0  0  0  0
   -1.8869   -2.2396    0.0000 N   0  0  0  0  0  0  0  0  0  0  0  0
   -2.8576   -2.4494    0.0000 C   0  0  0  0  0  0  0  0  0  0  0  0
   -3.3723   -3.3125    0.0000 C   0  0  0  0  0  0  0  0  0  0  0  0
   -4.3714   -3.3143    0.0000 C   0  0  0  0  0  0  0  0  0  0  0  0
   -4.8675   -2.4392    0.0000 C   0  0  0  0  0  0  0  0  0  0  0  0
   -5.8564   -2.4383    0.0000 F   0  0  0  0  0  0  0  0  0  0  0  0
   -4.3474   -1.5818    0.0000 C   0  0  0  0  0  0  0  0  0  0  0  0
   -3.3625   -1.5827    0.0000 C   0  0  0  0  0  0  0  0  0  0  0  0
   -2.6870   -0.8391    0.0000 N   0  0  0  0  0  0  0  0  0  0  0  0
    1.6972    1.7556    0.0000 C   0  0  0  0  0  0  0  0  0  0  0  0
    4.2697   -0.7494    0.0000 C   0  0  1  0  0  0  0  0  0  0  0  0
    4.3803    0.2480    0.0000 C   0  0  0  0  0  0  0  0  0  0  0  0
    5.3524    0.4529    0.0000 C   0  0  0  0  0  0  0  0  0  0  0  0
    5.8564   -0.4133    0.0000 O   0  0  0  0  0  0  0  0  0  0  0  0
    5.1835   -1.1529    0.0000 C   0  0  0  0  0  0  0  0  0  0  0  0
    3.2785   -3.9210    0.0000 C   0  0  0  0  0  0  0  0  0  0  0  0
    3.9274   -4.6712    0.0000 C   0  0  0  0  0  0  0  0  0  0  0  0
   -0.9225   -0.7476    0.0000 C   0  0  0  0  0  0  0  0  0  0  0  0
   -0.0487   -1.2516    0.0000 C   0  0  0  0  0  0  0  0  0  0  0  0
   -0.0487   -2.2601    0.0000 O   0  0  0  0  0  0  0  0  0  0  0  0
    0.8282    2.2418    0.0000 C   0  0  0  0  0  0  0  0  0  0  0  0
    0.1167    2.9534    0.0000 C   0  0  0  0  0  0  0  0  0  0  0  0
    1.5398    2.9534    0.0000 C   0  0  0  0  0  0  0  0  0  0  0  0
    0.8282    3.6650    0.0000 N   0  0  0  0  0  0  0  0  0  0  0  0
    0.8282    4.6712    0.0000 C   0  0  0  0  0  0  0  0  0  0  0  0
  1  2  1  0  0  0  0
  2  3  1  0  0  0  0
  2 33  1  0  0  0  0
  2 34  1  0  0  0  0
  3  4  1  0  0  0  0
  5  4  1  1  0  0  0
  5  6  1  0  0  0  0
  5 28  1  0  0  0  0
  6  7  1  0  0  0  0
  7  8  2  0  0  0  0
  7  9  1  0  0  0  0
  9 10  1  0  0  0  0
  9 27  1  0  0  0  0
 10 11  1  0  0  0  0
 11 12  2  0  0  0  0
 11 16  1  0  0  0  0
 12 13  1  0  0  0  0
 12 38  1  0  0  0  0
 13 14  2  0  0  0  0
 14 15  1  0  0  0  0
 15 16  2  0  0  0  0
 16 35  1  0  0  0  0
 35 17  1  0  0  0  0
 17 18  2  0  0  0  0
 17 26  1  0  0  0  0
 18 19  1  0  0  0  0
 19 20  2  0  0  0  0
 19 25  1  0  0  0  0
 20 21  1  0  0  0  0
 21 22  2  0  0  0  0
 22 23  1  0  0  0  0
 22 24  1  0  0  0  0
 24 25  2  0  0  0  0
 25 26  1  0  0  0  0
 38 27  1  0  0  0  0
 28 29  1  1  0  0  0
 28 32  1  0  0  0  0
 29 30  1  0  0  0  0
 30 31  1  0  0  0  0
 31 32  1  0  0  0  0
 33 34  1  0  0  0  0
 36 35  1  6  0  0  0
 36 37  1  0  0  0  0
 40 41  1  0  0  0  0
 38 39  1  0  0  0  0
 39 41  1  0  0  0  0
 38 40  1  0  0  0  0
 41 42  1  0  0  0  0
M  END
>  <ID> (INSCoV-083)
INSCoV-083

>  <HBA> (INSCoV-083)
4

>  <HBD> (INSCoV-083)
7

>  <MCE-18> (INSCoV-083)
117.455

>  <nRot> (INSCoV-083)
8

>  <TopoPSA> (INSCoV-083)
136.73

>  <chembl_closest> (INSCoV-083)
CHEMBL3823616

>  <chembl_max_sim> (INSCoV-083)
0.73

>  <nSC> (INSCoV-083)
3

>  <nAR> (INSCoV-083)
3

>  <MW> (INSCoV-083)
537.28

$$$$

  -ISIS-  -- StrEd -- 

 36 40  0  0  0  0  0  0  0  0999 V2000
   -3.1647    4.4589    0.0000 C   0  0  0  0  0  0  0  0  0  0  0  0
   -2.3010    3.9586    0.0000 C   0  0  0  0  0  0  0  0  0  0  0  0
   -2.3023    2.9598    0.0000 O   0  0  0  0  0  0  0  0  0  0  0  0
   -1.4257    4.4611    0.0000 C   0  0  0  0  0  0  0  0  0  0  0  0
   -1.4532    5.4539    0.0000 C   0  0  0  0  0  0  0  0  0  0  0  0
   -0.5646    5.9651    0.0000 C   0  0  0  0  0  0  0  0  0  0  0  0
    0.2815    5.4424    0.0000 C   0  0  0  0  0  0  0  0  0  0  0  0
    0.3070    4.4481    0.0000 C   0  0  0  0  0  0  0  0  0  0  0  0
   -0.5822    3.9375    0.0000 C   0  0  0  0  0  0  0  0  0  0  0  0
   -0.5797    2.9490    0.0000 N   0  0  0  0  0  0  0  0  0  0  0  0
    0.2869    2.4494    0.0000 C   0  0  0  0  0  0  0  0  0  0  0  0
    1.1513    2.9503    0.0000 O   0  0  0  0  0  0  0  0  0  0  0  0
    0.2889    1.4525    0.0000 N   0  0  0  0  0  0  0  0  0  0  0  0
    1.1626    0.9468    0.0000 C   0  0  0  0  0  0  0  0  0  0  0  0
    2.0216    1.4680    0.0000 C   0  0  0  0  0  0  0  0  0  0  0  0
    2.8608    0.9475    0.0000 C   0  0  0  0  0  0  0  0  0  0  0  0
    2.8735   -0.0651    0.0000 C   0  0  0  0  0  0  0  0  0  0  0  0
    1.9987   -0.5328    0.0000 C   0  0  0  0  0  0  0  0  0  0  0  0
    1.1308   -0.0554    0.0000 C   0  0  0  0  0  0  0  0  0  0  0  0
    2.1961   -1.5310    0.0000 C   0  0  1  0  0  0  0  0  0  0  0  0
    1.5371   -2.2615    0.0000 C   0  0  0  0  0  0  0  0  0  0  0  0
    0.5587   -2.0602    0.0000 O   0  0  0  0  0  0  0  0  0  0  0  0
    1.8592   -3.2267    0.0000 C   0  0  0  0  0  0  0  0  0  0  0  0
    1.1731   -3.9502    0.0000 C   0  0  0  0  0  0  0  0  0  0  0  0
    1.5069   -4.8973    0.0000 C   0  0  0  0  0  0  0  0  0  0  0  0
    2.4725   -5.1309    0.0000 C   0  0  0  0  0  0  0  0  0  0  0  0
    3.1278   -4.3612    0.0000 C   0  0  0  0  0  0  0  0  0  0  0  0
    2.8403   -3.4090    0.0000 C   0  0  0  0  0  0  0  0  0  0  0  0
    3.2023   -1.6266    0.0000 C   0  0  0  0  0  0  0  0  0  0  0  0
    3.6301   -0.7354    0.0000 C   0  0  0  0  0  0  0  0  0  0  0  0
   -4.0313    3.9616    0.0000 N   0  0  0  0  0  0  0  0  0  0  0  0
   -2.3098    5.9513    0.0000 F   0  0  0  0  0  0  0  0  0  0  0  0
   -1.4449    2.4503    0.0000 C   0  0  0  0  0  0  0  0  0  0  0  0
    2.9650   -5.9651    0.0000 N   0  0  0  0  0  0  0  0  0  0  0  0
    4.0313   -4.7810    0.0000 C   0  0  0  0  0  0  0  0  0  0  0  0
    3.9494   -5.7805    0.0000 C   0  0  0  0  0  0  0  0  0  0  0  0
  1  2  1  0  0  0  0
  1 31  1  0  0  0  0
  2  3  2  0  0  0  0
  2  4  1  0  0  0  0
  4  5  2  0  0  0  0
  4  9  1  0  0  0  0
  5  6  1  0  0  0  0
  5 32  1  0  0  0  0
  6  7  2  0  0  0  0
  7  8  1  0  0  0  0
  8  9  2  0  0  0  0
  9 10  1  0  0  0  0
 10 11  1  0  0  0  0
 10 33  1  0  0  0  0
 11 12  2  0  0  0  0
 11 13  1  0  0  0  0
 13 14  1  0  0  0  0
 14 15  2  0  0  0  0
 14 19  1  0  0  0  0
 15 16  1  0  0  0  0
 16 17  2  0  0  0  0
 17 18  1  0  0  0  0
 17 30  1  0  0  0  0
 18 19  2  0  0  0  0
 18 20  1  0  0  0  0
 20 21  1  6  0  0  0
 20 29  1  0  0  0  0
 21 22  2  0  0  0  0
 21 23  1  0  0  0  0
 23 24  2  0  0  0  0
 23 28  1  0  0  0  0
 24 25  1  0  0  0  0
 25 26  2  0  0  0  0
 26 27  1  0  0  0  0
 26 34  1  0  0  0  0
 27 28  2  0  0  0  0
 27 35  1  0  0  0  0
 29 30  1  0  0  0  0
 34 36  1  0  0  0  0
 35 36  1  0  0  0  0
M  END
>  <ID> (INSCoV-084)
INSCoV-084

>  <HBA> (INSCoV-084)
3

>  <HBD> (INSCoV-084)
5

>  <MCE-18> (INSCoV-084)
95.286

>  <nRot> (INSCoV-084)
6

>  <TopoPSA> (INSCoV-084)
104.53

>  <chembl_closest> (INSCoV-084)
No

>  <chembl_max_sim> (INSCoV-084)
0.7

>  <nSC> (INSCoV-084)
1

>  <nAR> (INSCoV-084)
3

>  <MW> (INSCoV-084)
486.21

$$$$

  -ISIS-  -- StrEd -- 

 45 50  0  0  0  0  0  0  0  0999 V2000
   -1.9108   -3.4621    0.0000 O   0  0  0  0  0  0  0  0  0  0  0  0
   -1.9121   -2.4736    0.0000 C   0  0  0  0  0  0  0  0  0  0  0  0
   -1.0765   -1.9857    0.0000 N   0  0  0  0  0  0  0  0  0  0  0  0
   -0.2271   -2.4752    0.0000 C   0  0  0  0  0  0  0  0  0  0  0  0
   -0.2356   -3.5060    0.0000 C   0  0  0  0  0  0  0  0  0  0  0  0
    0.6589   -3.9893    0.0000 C   0  0  0  0  0  0  0  0  0  0  0  0
    1.5625   -3.4696    0.0000 C   0  0  0  0  0  0  0  0  0  0  0  0
    1.5346   -2.4493    0.0000 C   0  0  0  0  0  0  0  0  0  0  0  0
    0.6522   -1.9349    0.0000 C   0  0  0  0  0  0  0  0  0  0  0  0
    2.4534   -2.1585    0.0000 C   0  0  1  0  0  0  0  0  0  0  0  0
    2.9263   -1.1343    0.0000 C   0  0  0  0  0  0  0  0  0  0  0  0
    2.3290   -0.3471    0.0000 O   0  0  0  0  0  0  0  0  0  0  0  0
    4.1251   -0.9411    0.0000 C   0  0  0  0  0  0  0  0  0  0  0  0
    4.4607    0.0399    0.0000 C   0  0  0  0  0  0  0  0  0  0  0  0
    5.4804    0.2806    0.0000 C   0  0  0  0  0  0  0  0  0  0  0  0
    6.1638   -0.4973    0.0000 N   0  0  0  0  0  0  0  0  0  0  0  0
    5.8662   -1.4889    0.0000 C   0  0  0  0  0  0  0  0  0  0  0  0
    4.8390   -1.6943    0.0000 C   0  0  0  0  0  0  0  0  0  0  0  0
    4.6336   -2.5728    0.0000 C   0  0  0  0  0  0  0  0  0  0  0  0
    5.3367   -3.2244    0.0000 C   0  0  0  0  0  0  0  0  0  0  0  0
    5.1572   -4.2002    0.0000 C   0  0  0  0  0  0  0  0  0  0  0  0
    4.2607   -4.4861    0.0000 N   0  0  0  0  0  0  0  0  0  0  0  0
    3.5353   -3.8603    0.0000 C   0  0  0  0  0  0  0  0  0  0  0  0
    3.7491   -2.8904    0.0000 C   0  0  0  0  0  0  0  0  0  0  0  0
    3.0291   -2.9232    0.0000 O   0  0  0  0  0  0  0  0  0  0  0  0
    2.4220   -3.7326    0.0000 C   0  0  0  0  0  0  0  0  0  0  0  0
   -2.7514   -1.9867    0.0000 N   0  0  0  0  0  0  0  0  0  0  0  0
   -3.5769   -2.4726    0.0000 C   0  0  0  0  0  0  0  0  0  0  0  0
   -4.4476   -1.9975    0.0000 C   0  0  0  0  0  0  0  0  0  0  0  0
   -5.3134   -2.4844    0.0000 C   0  0  0  0  0  0  0  0  0  0  0  0
   -6.1638   -2.0003    0.0000 O   0  0  0  0  0  0  0  0  0  0  0  0
   -5.2905   -3.4789    0.0000 C   0  0  0  0  0  0  0  0  0  0  0  0
   -4.4368   -3.9851    0.0000 C   0  0  0  0  0  0  0  0  0  0  0  0
   -3.5883   -3.4668    0.0000 C   0  0  0  0  0  0  0  0  0  0  0  0
   -2.7209   -3.9612    0.0000 O   0  0  0  0  0  0  0  0  0  0  0  0
   -4.4535   -0.9991    0.0000 C   0  0  0  0  0  0  0  0  0  0  0  0
    3.8310    0.7957    0.0000 N   0  0  0  0  0  0  0  0  0  0  0  0
    4.9592    3.5604    0.0000 C   0  0  0  0  0  0  0  0  0  0  0  0
    5.3344    4.4861    0.0000 F   0  0  0  0  0  0  0  0  0  0  0  0
    5.5852    2.7857    0.0000 C   0  0  0  0  0  0  0  0  0  0  0  0
    5.1942    1.8711    0.0000 C   0  0  0  0  0  0  0  0  0  0  0  0
    4.2108    1.7172    0.0000 C   0  0  0  0  0  0  0  0  0  0  0  0
    3.6145    2.5129    0.0000 C   0  0  0  0  0  0  0  0  0  0  0  0
    2.6256    2.3754    0.0000 F   0  0  0  0  0  0  0  0  0  0  0  0
    3.9722    3.4415    0.0000 C   0  0  0  0  0  0  0  0  0  0  0  0
  1  2  2  0  0  0  0
  2  3  1  0  0  0  0
  2 27  1  0  0  0  0
  3  4  1  0  0  0  0
  4  5  2  0  0  0  0
  4  9  1  0  0  0  0
  5  6  1  0  0  0  0
  6  7  2  0  0  0  0
  7  8  1  0  0  0  0
  7 26  1  0  0  0  0
  8  9  2  0  0  0  0
  8 10  1  0  0  0  0
 10 11  1  1  0  0  0
 10 25  1  0  0  0  0
 11 12  2  0  0  0  0
 11 13  1  0  0  0  0
 13 14  1  0  0  0  0
 13 18  2  0  0  0  0
 14 15  2  0  0  0  0
 14 37  1  0  0  0  0
 15 16  1  0  0  0  0
 16 17  2  0  0  0  0
 17 18  1  0  0  0  0
 18 19  1  0  0  0  0
 19 20  1  0  0  0  0
 19 24  1  0  0  0  0
 20 21  1  0  0  0  0
 21 22  1  0  0  0  0
 22 23  1  0  0  0  0
 23 24  1  0  0  0  0
 25 26  1  0  0  0  0
 27 28  1  0  0  0  0
 28 29  2  0  0  0  0
 28 34  1  0  0  0  0
 29 30  1  0  0  0  0
 29 36  1  0  0  0  0
 30 31  1  0  0  0  0
 30 32  2  0  0  0  0
 32 33  1  0  0  0  0
 33 34  2  0  0  0  0
 34 35  1  0  0  0  0
 37 42  1  0  0  0  0
 38 39  1  0  0  0  0
 38 40  2  0  0  0  0
 38 45  1  0  0  0  0
 40 41  1  0  0  0  0
 41 42  2  0  0  0  0
 42 43  1  0  0  0  0
 43 44  1  0  0  0  0
 43 45  2  0  0  0  0
M  END
>  <ID> (INSCoV-085)
INSCoV-085

>  <HBA> (INSCoV-085)
6

>  <HBD> (INSCoV-085)
7

>  <MCE-18> (INSCoV-085)
116.951

>  <nRot> (INSCoV-085)
7

>  <TopoPSA> (INSCoV-085)
144.84

>  <chembl_closest> (INSCoV-085)
No

>  <chembl_max_sim> (INSCoV-085)
0.7

>  <nSC> (INSCoV-085)
1

>  <nAR> (INSCoV-085)
4

>  <MW> (INSCoV-085)
615.23

$$$$

  -ISIS-  -- StrEd -- 

 50 55  0  0  0  0  0  0  0  0999 V2000
    0.5265    6.8137    0.0000 C   0  0  0  0  0  0  0  0  0  0  0  0
   -0.3361    6.3110    0.0000 C   0  0  0  0  0  0  0  0  0  0  0  0
   -0.3312    5.3128    0.0000 O   0  0  0  0  0  0  0  0  0  0  0  0
   -1.2033    6.8068    0.0000 N   0  0  0  0  0  0  0  0  0  0  0  0
   -2.0667    6.3038    0.0000 C   0  0  1  0  0  0  0  0  0  0  0  0
   -2.9329    6.7990    0.0000 C   0  0  0  0  0  0  0  0  0  0  0  0
   -3.8056    6.2912    0.0000 C   0  0  0  0  0  0  0  0  0  0  0  0
   -3.7686    5.2928    0.0000 C   0  0  0  0  0  0  0  0  0  0  0  0
   -4.6471    4.8189    0.0000 C   0  0  0  0  0  0  0  0  0  0  0  0
   -5.5292    5.2866    0.0000 C   0  0  0  0  0  0  0  0  0  0  0  0
   -5.5011    6.2853    0.0000 C   0  0  0  0  0  0  0  0  0  0  0  0
   -4.6552    6.8151    0.0000 C   0  0  0  0  0  0  0  0  0  0  0  0
   -2.0637    5.3069    0.0000 C   0  0  2  0  0  0  0  0  0  0  0  0
   -2.9256    4.8053    0.0000 O   0  0  0  0  0  0  0  0  0  0  0  0
   -1.1988    4.8106    0.0000 C   0  0  0  0  0  0  0  0  0  0  0  0
   -1.1969    3.8235    0.0000 C   0  0  1  0  0  0  0  0  0  0  0  0
   -1.9845    3.2242    0.0000 C   0  0  0  0  0  0  0  0  0  0  0  0
   -1.6863    2.2639    0.0000 C   0  0  0  0  0  0  0  0  0  0  0  0
   -0.6745    2.2731    0.0000 C   0  0  0  0  0  0  0  0  0  0  0  0
   -0.3914    3.2253    0.0000 C   0  0  0  0  0  0  0  0  0  0  0  0
    0.6044    3.4229    0.0000 S   0  0  0  0  0  0  0  0  0  0  0  0
    1.4510    3.9662    0.0000 O   0  0  0  0  0  0  0  0  0  0  0  0
    0.2311    4.3572    0.0000 O   0  0  0  0  0  0  0  0  0  0  0  0
    1.2823    2.7086    0.0000 N   0  0  0  0  0  0  0  0  0  0  0  0
    0.9499    1.7632    0.0000 C   0  0  0  0  0  0  0  0  0  0  0  0
    1.6297    1.0265    0.0000 C   0  0  0  0  0  0  0  0  0  0  0  0
    1.3149    0.0520    0.0000 C   0  0  0  0  0  0  0  0  0  0  0  0
    2.0030   -0.6658    0.0000 C   0  0  0  0  0  0  0  0  0  0  0  0
    2.9814   -0.4822    0.0000 C   0  0  0  0  0  0  0  0  0  0  0  0
    3.2928    0.4928    0.0000 C   0  0  0  0  0  0  0  0  0  0  0  0
    2.6040    1.2071    0.0000 C   0  0  0  0  0  0  0  0  0  0  0  0
   -0.0315    1.5277    0.0000 N   0  0  0  0  0  0  0  0  0  0  0  0
    1.3931    6.3189    0.0000 C   0  0  0  0  0  0  0  0  0  0  0  0
   -6.3830    4.7902    0.0000 F   0  0  0  0  0  0  0  0  0  0  0  0
    1.6938   -1.6301    0.0000 C   0  0  0  0  0  0  0  0  0  0  0  0
    3.7121   -3.8589    0.0000 C   0  0  0  0  0  0  0  0  0  0  0  0
    2.7333   -4.0469    0.0000 C   0  0  0  0  0  0  0  0  0  0  0  0
    2.4260   -5.0074    0.0000 F   0  0  0  0  0  0  0  0  0  0  0  0
    2.0452   -3.3243    0.0000 C   0  0  0  0  0  0  0  0  0  0  0  0
    2.3725   -2.3804    0.0000 C   0  0  0  0  0  0  0  0  0  0  0  0
    3.3411   -2.1459    0.0000 C   0  0  0  0  0  0  0  0  0  0  0  0
    3.9947   -2.8998    0.0000 C   0  0  0  0  0  0  0  0  0  0  0  0
    4.9791   -2.6862    0.0000 F   0  0  0  0  0  0  0  0  0  0  0  0
    5.7192   -6.0812    0.0000 N   0  0  0  0  0  0  0  0  0  0  0  0
    6.3830   -6.8151    0.0000 C   0  0  0  0  0  0  0  0  0  0  0  0
    6.0337   -5.1058    0.0000 C   0  0  0  0  0  0  0  0  0  0  0  0
    5.3463   -4.3892    0.0000 C   0  0  0  0  0  0  0  0  0  0  0  0
    4.3702   -4.5698    0.0000 N   0  0  0  0  0  0  0  0  0  0  0  0
    4.0550   -5.5448    0.0000 C   0  0  0  0  0  0  0  0  0  0  0  0
    4.7421   -6.2616    0.0000 C   0  0  0  0  0  0  0  0  0  0  0  0
  1  2  1  0  0  0  0
  1 33  1  0  0  0  0
  2  3  2  0  0  0  0
  2  4  1  0  0  0  0
  5  4  1  0  0  0  0
  5  6  1  6  0  0  0
  5 13  1  0  0  0  0
  6  7  1  0  0  0  0
  7  8  2  0  0  0  0
  7 12  1  0  0  0  0
  8  9  1  0  0  0  0
  9 10  2  0  0  0  0
 10 11  1  0  0  0  0
 10 34  1  0  0  0  0
 11 12  2  0  0  0  0
 13 14  1  1  0  0  0
 13 15  1  0  0  0  0
 16 15  1  6  0  0  0
 16 17  1  0  0  0  0
 16 20  1  0  0  0  0
 17 18  1  0  0  0  0
 18 19  1  0  0  0  0
 19 20  2  0  0  0  0
 19 32  1  0  0  0  0
 20 21  1  0  0  0  0
 21 22  2  0  0  0  0
 21 23  2  0  0  0  0
 21 24  1  0  0  0  0
 24 25  2  0  0  0  0
 25 26  1  0  0  0  0
 25 32  1  0  0  0  0
 26 27  2  0  0  0  0
 26 31  1  0  0  0  0
 27 28  1  0  0  0  0
 28 29  2  0  0  0  0
 28 35  1  0  0  0  0
 29 30  1  0  0  0  0
 30 31  2  0  0  0  0
 35 40  1  0  0  0  0
 36 37  2  0  0  0  0
 36 42  1  0  0  0  0
 36 48  1  0  0  0  0
 37 38  1  0  0  0  0
 37 39  1  0  0  0  0
 39 40  2  0  0  0  0
 40 41  1  0  0  0  0
 41 42  2  0  0  0  0
 42 43  1  0  0  0  0
 44 45  1  0  0  0  0
 44 46  1  0  0  0  0
 44 50  1  0  0  0  0
 46 47  1  0  0  0  0
 47 48  1  0  0  0  0
 48 49  1  0  0  0  0
 49 50  1  0  0  0  0
M  END
>  <ID> (INSCoV-086)
INSCoV-086

>  <HBA> (INSCoV-086)
5

>  <HBD> (INSCoV-086)
4

>  <MCE-18> (INSCoV-086)
124.231

>  <nRot> (INSCoV-086)
11

>  <TopoPSA> (INSCoV-086)
122.72

>  <chembl_closest> (INSCoV-086)
CHEMBL550391

>  <chembl_max_sim> (INSCoV-086)
0.82

>  <nSC> (INSCoV-086)
3

>  <nAR> (INSCoV-086)
3

>  <MW> (INSCoV-086)
709.29

$$$$

  -ISIS-  -- StrEd -- 

 38 42  0  0  0  0  0  0  0  0999 V2000
   -1.5798    2.1878    0.0000 C   0  0  0  0  0  0  0  0  0  0  0  0
   -1.5838    3.1863    0.0000 C   0  0  1  0  0  0  0  0  0  0  0  0
   -2.4503    3.6834    0.0000 C   0  0  0  0  0  0  0  0  0  0  0  0
   -3.3056    3.1824    0.0000 C   0  0  0  0  0  0  0  0  0  0  0  0
   -4.1937    3.6932    0.0000 C   0  0  0  0  0  0  0  0  0  0  0  0
   -5.0401    3.1699    0.0000 C   0  0  0  0  0  0  0  0  0  0  0  0
   -5.9160    3.6709    0.0000 F   0  0  0  0  0  0  0  0  0  0  0  0
   -5.0643    2.1736    0.0000 C   0  0  0  0  0  0  0  0  0  0  0  0
   -4.1752    1.6654    0.0000 C   0  0  0  0  0  0  0  0  0  0  0  0
   -3.3316    2.1906    0.0000 C   0  0  0  0  0  0  0  0  0  0  0  0
   -0.7214    3.6907    0.0000 N   0  0  0  0  0  0  0  0  0  0  0  0
    0.1470    3.1976    0.0000 C   0  0  0  0  0  0  0  0  0  0  0  0
    0.9996    3.6986    0.0000 C   0  0  2  0  0  0  0  0  0  0  0  0
    0.9983    4.6905    0.0000 C   0  0  0  0  0  0  0  0  0  0  0  0
    1.8608    5.2002    0.0000 O   0  0  0  0  0  0  0  0  0  0  0  0
    2.7291    4.7014    0.0000 C   0  0  0  0  0  0  0  0  0  0  0  0
    2.7408    3.7095    0.0000 C   0  0  0  0  0  0  0  0  0  0  0  0
    1.8733    3.2080    0.0000 C   0  0  2  0  0  0  0  0  0  0  0  0
    1.0688    2.6139    0.0000 N   0  0  0  0  0  0  0  0  0  0  0  0
    1.3733    1.6617    0.0000 C   0  0  0  0  0  0  0  0  0  0  0  0
    0.7944    0.8599    0.0000 O   0  0  0  0  0  0  0  0  0  0  0  0
    2.3777    1.6702    0.0000 N   0  0  0  0  0  0  0  0  0  0  0  0
    2.9661    0.8628    0.0000 C   0  0  0  0  0  0  0  0  0  0  0  0
    2.5672   -0.0556    0.0000 C   0  0  0  0  0  0  0  0  0  0  0  0
    3.1525   -0.8656    0.0000 C   0  0  0  0  0  0  0  0  0  0  0  0
    4.1425   -0.7524    0.0000 C   0  0  0  0  0  0  0  0  0  0  0  0
    4.7380   -1.5642    0.0000 C   0  0  0  0  0  0  0  0  0  0  0  0
    4.3338   -2.4757    0.0000 N   0  0  0  0  0  0  0  0  0  0  0  0
    4.9225   -3.2812    0.0000 C   0  0  0  0  0  0  0  0  0  0  0  0
    5.9160   -3.1721    0.0000 O   0  0  0  0  0  0  0  0  0  0  0  0
    4.5137   -4.1854    0.0000 C   0  0  0  0  0  0  0  0  0  0  0  0
    4.5511    0.1625    0.0000 C   0  0  0  0  0  0  0  0  0  0  0  0
    3.9571    0.9662    0.0000 C   0  0  0  0  0  0  0  0  0  0  0  0
    2.6829    2.6127    0.0000 C   0  0  0  0  0  0  0  0  0  0  0  0
    3.6365    2.9367    0.0000 O   0  0  0  0  0  0  0  0  0  0  0  0
    3.7236   -4.7844    0.0000 C   0  0  0  0  0  0  0  0  0  0  0  0
    4.6252   -5.2002    0.0000 C   0  0  0  0  0  0  0  0  0  0  0  0
    4.3647    1.8902    0.0000 Cl  0  0  0  0  0  0  0  0  0  0  0  0
  2  1  1  1  0  0  0
  2  3  1  0  0  0  0
  2 11  1  0  0  0  0
  3  4  1  0  0  0  0
  4  5  2  0  0  0  0
  4 10  1  0  0  0  0
  5  6  1  0  0  0  0
  6  7  1  0  0  0  0
  6  8  2  0  0  0  0
  8  9  1  0  0  0  0
  9 10  2  0  0  0  0
 11 12  1  0  0  0  0
 13 12  1  6  0  0  0
 13 14  1  0  0  0  0
 13 18  1  0  0  0  0
 14 15  1  0  0  0  0
 15 16  1  0  0  0  0
 16 17  1  0  0  0  0
 18 17  1  6  0  0  0
 18 19  1  0  0  0  0
 18 34  1  0  0  0  0
 19 20  1  0  0  0  0
 20 21  2  0  0  0  0
 20 22  1  0  0  0  0
 22 23  1  0  0  0  0
 22 34  1  0  0  0  0
 23 24  2  0  0  0  0
 23 33  1  0  0  0  0
 24 25  1  0  0  0  0
 25 26  2  0  0  0  0
 26 27  1  0  0  0  0
 26 32  1  0  0  0  0
 27 28  1  0  0  0  0
 28 29  1  0  0  0  0
 29 30  2  0  0  0  0
 31 29  1  0  0  0  0
 31 36  1  0  0  0  0
 31 37  1  0  0  0  0
 32 33  2  0  0  0  0
 33 38  1  0  0  0  0
 34 35  2  0  0  0  0
 36 37  1  0  0  0  0
M  END
>  <ID> (INSCoV-087)
INSCoV-087

>  <HBA> (INSCoV-087)
4

>  <HBD> (INSCoV-087)
4

>  <MCE-18> (INSCoV-087)
144.878

>  <nRot> (INSCoV-087)
9

>  <TopoPSA> (INSCoV-087)
99.77

>  <chembl_closest> (INSCoV-087)
CHEMBL1698848

>  <chembl_max_sim> (INSCoV-087)
0.82

>  <nSC> (INSCoV-087)
3

>  <nAR> (INSCoV-087)
2

>  <MW> (INSCoV-087)
578.19

$$$$

  -ISIS-  -- StrEd -- 

 40 45  0  0  0  0  0  0  0  0999 V2000
    0.1479    0.1942    0.0000 O   0  0  0  0  0  0  0  0  0  0  0  0
    1.0527   -0.1948    0.0000 C   0  0  0  0  0  0  0  0  0  0  0  0
    1.9947    0.5655    0.0000 C   0  0  0  0  0  0  0  0  0  0  0  0
    1.8110    1.5701    0.0000 C   0  0  0  0  0  0  0  0  0  0  0  0
    0.9229    1.8866    0.0000 C   0  0  0  0  0  0  0  0  0  0  0  0
    0.1779    1.2377    0.0000 C   0  0  0  0  0  0  0  0  0  0  0  0
   -0.7389    1.5904    0.0000 C   0  0  0  0  0  0  0  0  0  0  0  0
   -0.9256    2.5627    0.0000 C   0  0  0  0  0  0  0  0  0  0  0  0
   -0.1582    3.1843    0.0000 C   0  0  0  0  0  0  0  0  0  0  0  0
   -0.3309    4.1646    0.0000 F   0  0  0  0  0  0  0  0  0  0  0  0
    0.7692    2.8652    0.0000 C   0  0  0  0  0  0  0  0  0  0  0  0
    2.5784    2.2746    0.0000 C   0  0  0  0  0  0  0  0  0  0  0  0
    3.5410    1.9361    0.0000 N   0  0  0  0  0  0  0  0  0  0  0  0
    3.7613    0.9399    0.0000 C   0  0  0  0  0  0  0  0  0  0  0  0
    2.9700    0.2624    0.0000 C   0  0  0  0  0  0  0  0  0  0  0  0
    3.2013   -0.6594    0.0000 C   0  0  0  0  0  0  0  0  0  0  0  0
    2.5071   -1.3275    0.0000 C   0  0  0  0  0  0  0  0  0  0  0  0
    2.7790   -2.2719    0.0000 C   0  0  0  0  0  0  0  0  0  0  0  0
    3.7144   -2.5424    0.0000 N   0  0  0  0  0  0  0  0  0  0  0  0
    4.3846   -1.8476    0.0000 C   0  0  0  0  0  0  0  0  0  0  0  0
    4.1473   -0.8973    0.0000 C   0  0  0  0  0  0  0  0  0  0  0  0
    1.1472   -1.3076    0.0000 C   0  0  1  0  0  0  0  0  0  0  0  0
    2.0073   -1.7378    0.0000 C   0  0  0  0  0  0  0  0  0  0  0  0
    1.9082   -2.7787    0.0000 C   0  0  0  0  0  0  0  0  0  0  0  0
    0.9648   -2.9630    0.0000 C   0  0  0  0  0  0  0  0  0  0  0  0
    0.4467   -3.8365    0.0000 C   0  0  0  0  0  0  0  0  0  0  0  0
   -0.5259   -3.8555    0.0000 C   0  0  0  0  0  0  0  0  0  0  0  0
   -1.0121   -2.9727    0.0000 C   0  0  0  0  0  0  0  0  0  0  0  0
   -0.5266   -2.0776    0.0000 C   0  0  0  0  0  0  0  0  0  0  0  0
    0.4407   -2.0839    0.0000 C   0  0  0  0  0  0  0  0  0  0  0  0
   -1.1795   -1.3505    0.0000 C   0  0  0  0  0  0  0  0  0  0  0  0
   -2.0892   -1.7841    0.0000 C   0  0  0  0  0  0  0  0  0  0  0  0
   -1.9977   -2.7757    0.0000 N   0  0  0  0  0  0  0  0  0  0  0  0
   -2.7168   -3.4342    0.0000 S   0  0  0  0  0  0  0  0  0  0  0  0
   -2.0573   -4.1646    0.0000 O   0  0  0  0  0  0  0  0  0  0  0  0
   -3.3773   -2.7038    0.0000 O   0  0  0  0  0  0  0  0  0  0  0  0
   -3.4482   -4.0934    0.0000 C   0  0  0  0  0  0  0  0  0  0  0  0
   -4.3846   -3.7883    0.0000 C   0  0  0  0  0  0  0  0  0  0  0  0
    1.5165    3.4911    0.0000 C   0  0  0  0  0  0  0  0  0  0  0  0
    3.9653   -3.4851    0.0000 C   0  0  0  0  0  0  0  0  0  0  0  0
  1  2  2  0  0  0  0
  2  3  1  0  0  0  0
 22  2  1  1  0  0  0
  3  4  1  0  0  0  0
  3 15  2  0  0  0  0
  4  5  1  0  0  0  0
  4 12  2  0  0  0  0
  5  6  2  0  0  0  0
  5 11  1  0  0  0  0
  6  7  1  0  0  0  0
  7  8  2  0  0  0  0
  8  9  1  0  0  0  0
  9 10  1  0  0  0  0
  9 11  2  0  0  0  0
 11 39  1  0  0  0  0
 12 13  1  0  0  0  0
 13 14  2  0  0  0  0
 14 15  1  0  0  0  0
 16 15  1  0  0  0  0
 16 17  1  0  0  0  0
 16 21  1  0  0  0  0
 17 18  1  0  0  0  0
 18 19  1  0  0  0  0
 19 20  1  0  0  0  0
 19 40  1  0  0  0  0
 20 21  1  0  0  0  0
 22 23  1  0  0  0  0
 22 30  1  0  0  0  0
 23 24  1  0  0  0  0
 24 25  1  0  0  0  0
 25 26  1  0  0  0  0
 25 30  2  0  0  0  0
 26 27  2  0  0  0  0
 27 28  1  0  0  0  0
 28 29  2  0  0  0  0
 28 33  1  0  0  0  0
 29 30  1  0  0  0  0
 29 31  1  0  0  0  0
 31 32  1  0  0  0  0
 32 33  1  0  0  0  0
 33 34  1  0  0  0  0
 34 35  2  0  0  0  0
 34 36  2  0  0  0  0
 34 37  1  0  0  0  0
 37 38  1  0  0  0  0
M  END
>  <ID> (INSCoV-088)
INSCoV-088

>  <HBA> (INSCoV-088)
4

>  <HBD> (INSCoV-088)
1

>  <MCE-18> (INSCoV-088)
123.652

>  <nRot> (INSCoV-088)
6

>  <TopoPSA> (INSCoV-088)
78.96

>  <chembl_closest> (INSCoV-088)
CHEMBL1515167

>  <chembl_max_sim> (INSCoV-088)
0.79

>  <nSC> (INSCoV-088)
1

>  <nAR> (INSCoV-088)
3

>  <MW> (INSCoV-088)
561.25

$$$$

  -ISIS-  -- StrEd -- 

 35 38  0  0  0  0  0  0  0  0999 V2000
    2.9864   -1.5787    0.0000 N   0  0  0  0  0  0  0  0  0  0  0  0
    3.8531   -1.0805    0.0000 C   0  0  1  0  0  0  0  0  0  0  0  0
    4.7179   -1.5823    0.0000 C   0  0  0  0  0  0  0  0  0  0  0  0
    3.8552   -0.0805    0.0000 C   0  0  0  0  0  0  0  0  0  0  0  0
    2.9904    0.4208    0.0000 C   0  0  0  0  0  0  0  0  0  0  0  0
    2.9922    1.4206    0.0000 N   0  0  0  0  0  0  0  0  0  0  0  0
    2.1269    1.9225    0.0000 C   0  0  0  0  0  0  0  0  0  0  0  0
    2.1291    2.9228    0.0000 C   0  0  0  0  0  0  0  0  0  0  0  0
    1.2642    3.4247    0.0000 C   0  0  0  0  0  0  0  0  0  0  0  0
    0.3973    2.9265    0.0000 C   0  0  0  0  0  0  0  0  0  0  0  0
   -0.4681    3.4281    0.0000 C   0  0  0  0  0  0  0  0  0  0  0  0
   -1.3351    2.9299    0.0000 C   0  0  0  0  0  0  0  0  0  0  0  0
   -2.1999    3.4317    0.0000 C   0  0  0  0  0  0  0  0  0  0  0  0
   -2.1977    4.4312    0.0000 C   0  0  0  0  0  0  0  0  0  0  0  0
   -3.0635    4.9328    0.0000 C   0  0  0  0  0  0  0  0  0  0  0  0
   -1.3308    4.9294    0.0000 C   0  0  0  0  0  0  0  0  0  0  0  0
   -0.4659    4.4281    0.0000 C   0  0  0  0  0  0  0  0  0  0  0  0
    0.3951    1.9264    0.0000 S   0  0  0  0  0  0  0  0  0  0  0  0
   -0.5895    2.1021    0.0000 O   0  0  0  0  0  0  0  0  0  0  0  0
    0.0513    0.9875    0.0000 O   0  0  0  0  0  0  0  0  0  0  0  0
    1.2603    1.4243    0.0000 N   0  0  0  0  0  0  0  0  0  0  0  0
    0.4012    4.9263    0.0000 Cl  0  0  0  0  0  0  0  0  0  0  0  0
    1.2581    0.4243    0.0000 C   0  0  0  0  0  0  0  0  0  0  0  0
    4.2130   -4.1206    0.0000 C   0  0  0  0  0  0  0  0  0  0  0  0
    3.9064   -3.1684    0.0000 C   0  0  0  0  0  0  0  0  0  0  0  0
    4.7163   -2.5821    0.0000 C   0  0  0  0  0  0  0  0  0  0  0  0
    5.5243   -3.1717    0.0000 N   0  0  0  0  0  0  0  0  0  0  0  0
    5.2130   -4.1218    0.0000 C   0  0  0  0  0  0  0  0  0  0  0  0
    5.7993   -4.9328    0.0000 C   0  0  0  0  0  0  0  0  0  0  0  0
   -3.9323    3.4352    0.0000 C   0  0  0  0  0  0  0  0  0  0  0  0
   -4.7994    2.9370    0.0000 C   0  0  0  0  0  0  0  0  0  0  0  0
   -5.7993    2.9386    0.0000 C   0  0  0  0  0  0  0  0  0  0  0  0
   -5.3007    2.0716    0.0000 C   0  0  0  0  0  0  0  0  0  0  0  0
   -3.9306    4.4346    0.0000 O   0  0  0  0  0  0  0  0  0  0  0  0
   -3.0675    2.9333    0.0000 N   0  0  0  0  0  0  0  0  0  0  0  0
  2  1  1  6  0  0  0
  2  3  1  0  0  0  0
  2  4  1  0  0  0  0
  3 26  1  0  0  0  0
  4  5  1  0  0  0  0
  5  6  1  0  0  0  0
  6  7  1  0  0  0  0
  7  8  2  0  0  0  0
  7 21  1  0  0  0  0
  8  9  1  0  0  0  0
  9 10  2  0  0  0  0
 10 11  1  0  0  0  0
 10 18  1  0  0  0  0
 11 12  2  0  0  0  0
 11 17  1  0  0  0  0
 12 13  1  0  0  0  0
 13 14  2  0  0  0  0
 13 35  1  0  0  0  0
 14 15  1  0  0  0  0
 14 16  1  0  0  0  0
 16 17  2  0  0  0  0
 17 22  1  0  0  0  0
 18 19  2  0  0  0  0
 18 20  2  0  0  0  0
 18 21  1  0  0  0  0
 21 23  1  0  0  0  0
 24 25  1  0  0  0  0
 24 28  2  0  0  0  0
 25 26  2  0  0  0  0
 26 27  1  0  0  0  0
 27 28  1  0  0  0  0
 28 29  1  0  0  0  0
 30 31  1  0  0  0  0
 30 34  2  0  0  0  0
 30 35  1  0  0  0  0
 31 32  1  0  0  0  0
 31 33  1  0  0  0  0
 32 33  1  0  0  0  0
M  END
>  <ID> (INSCoV-089)
INSCoV-089

>  <HBA> (INSCoV-089)
3

>  <HBD> (INSCoV-089)
6

>  <MCE-18> (INSCoV-089)
85.629

>  <nRot> (INSCoV-089)
9

>  <TopoPSA> (INSCoV-089)
128.7

>  <chembl_closest> (INSCoV-089)
CHEMBL1476837

>  <chembl_max_sim> (INSCoV-089)
0.74

>  <nSC> (INSCoV-089)
1

>  <nAR> (INSCoV-089)
2

>  <MW> (INSCoV-089)
517.19

$$$$

  -ISIS-  -- StrEd -- 

 45 47  0  0  0  0  0  0  0  0999 V2000
    0.4984    2.3606    0.0000 C   0  0  0  0  0  0  0  0  0  0  0  0
   -0.3654    2.8641    0.0000 C   0  0  0  0  0  0  0  0  0  0  0  0
   -0.3613    3.8637    0.0000 C   0  0  0  0  0  0  0  0  0  0  0  0
   -1.2328    2.3683    0.0000 C   0  0  0  0  0  0  0  0  0  0  0  0
   -1.2346    1.3696    0.0000 C   0  0  1  0  0  0  0  0  0  0  0  0
   -0.3696    0.8694    0.0000 C   0  0  0  0  0  0  0  0  0  0  0  0
    0.4940   -0.6299    0.0000 C   0  0  1  0  0  0  0  0  0  0  0  0
    0.4919   -1.6307    0.0000 C   0  0  0  0  0  0  0  0  0  0  0  0
   -0.3668   -2.1219    0.0000 N   0  0  0  0  0  0  0  0  0  0  0  0
   -0.5803   -3.1286    0.0000 C   0  0  0  0  0  0  0  0  0  0  0  0
   -2.0031   -2.3031    0.0000 C   0  0  0  0  0  0  0  0  0  0  0  0
   -1.2413   -1.6506    0.0000 C   0  0  0  0  0  0  0  0  0  0  0  0
    1.3599   -0.1332    0.0000 C   0  0  0  0  0  0  0  0  0  0  0  0
    2.2228   -0.6369    0.0000 C   0  0  0  0  0  0  0  0  0  0  0  0
    3.0903   -0.1425    0.0000 C   0  0  0  0  0  0  0  0  0  0  0  0
    4.8196   -0.1515    0.0000 C   0  0  0  0  0  0  0  0  0  0  0  0
    5.6916   -0.6596    0.0000 C   0  0  0  0  0  0  0  0  0  0  0  0
    6.5529   -0.1494    0.0000 C   0  0  0  0  0  0  0  0  0  0  0  0
    7.4125   -0.6661    0.0000 C   0  0  0  0  0  0  0  0  0  0  0  0
    7.4248   -1.6613    0.0000 C   0  0  0  0  0  0  0  0  0  0  0  0
    6.5482   -2.1451    0.0000 C   0  0  0  0  0  0  0  0  0  0  0  0
    5.6735   -1.6546    0.0000 C   0  0  0  0  0  0  0  0  0  0  0  0
   -2.9655    1.3713    0.0000 C   0  0  0  0  0  0  0  0  0  0  0  0
   -3.8324    0.8736    0.0000 C   0  0  2  0  0  0  0  0  0  0  0  0
   -3.8368   -0.1262    0.0000 C   0  0  0  0  0  0  0  0  0  0  0  0
   -2.9741   -0.6316    0.0000 C   0  0  0  0  0  0  0  0  0  0  0  0
   -5.5616    0.8775    0.0000 C   0  0  0  0  0  0  0  0  0  0  0  0
   -6.4264    1.3785    0.0000 C   0  0  2  0  0  0  0  0  0  0  0  0
   -6.4252    2.3780    0.0000 C   0  0  0  0  0  0  0  0  0  0  0  0
   -0.3712   -0.1302    0.0000 N   0  0  0  0  0  0  0  0  0  0  0  0
   -1.5694   -3.2071    0.0000 N   0  0  0  0  0  0  0  0  0  0  0  0
   -2.1008    0.8703    0.0000 N   0  0  0  0  0  0  0  0  0  0  0  0
   -4.6957    1.3757    0.0000 N   0  0  0  0  0  0  0  0  0  0  0  0
   -7.2923    0.8796    0.0000 N   0  0  0  0  0  0  0  0  0  0  0  0
    0.0861   -3.8637    0.0000 O   0  0  0  0  0  0  0  0  0  0  0  0
    3.9528   -0.6469    0.0000 O   0  0  0  0  0  0  0  0  0  0  0  0
    3.0959    0.8571    0.0000 O   0  0  0  0  0  0  0  0  0  0  0  0
    0.4970    1.3680    0.0000 O   0  0  0  0  0  0  0  0  0  0  0  0
   -5.5628   -0.1218    0.0000 O   0  0  0  0  0  0  0  0  0  0  0  0
   -2.9634    2.3711    0.0000 O   0  0  0  0  0  0  0  0  0  0  0  0
   -7.4248    2.3787    0.0000 F   0  0  0  0  0  0  0  0  0  0  0  0
   -6.9243    3.2442    0.0000 F   0  0  0  0  0  0  0  0  0  0  0  0
   -5.5591    2.8771    0.0000 F   0  0  0  0  0  0  0  0  0  0  0  0
   -1.2425   -0.6390    0.0000 C   0  0  0  0  0  0  0  0  0  0  0  0
   -2.1054   -0.1371    0.0000 O   0  0  0  0  0  0  0  0  0  0  0  0
  1  2  1  0  0  0  0
  2  3  1  0  0  0  0
  2  4  1  0  0  0  0
  5  4  1  1  0  0  0
  5  6  1  0  0  0  0
  5 32  1  0  0  0  0
  6 30  1  0  0  0  0
  6 38  2  0  0  0  0
  7  8  1  0  0  0  0
  7 13  1  6  0  0  0
  7 30  1  0  0  0  0
  8  9  1  0  0  0  0
  9 10  1  0  0  0  0
  9 12  1  0  0  0  0
 10 31  1  0  0  0  0
 10 35  2  0  0  0  0
 11 12  2  0  0  0  0
 11 31  1  0  0  0  0
 12 44  1  0  0  0  0
 13 14  2  0  0  0  0
 14 15  1  0  0  0  0
 15 36  1  0  0  0  0
 15 37  2  0  0  0  0
 16 17  1  0  0  0  0
 16 36  1  0  0  0  0
 17 18  2  0  0  0  0
 17 22  1  0  0  0  0
 18 19  1  0  0  0  0
 19 20  2  0  0  0  0
 20 21  1  0  0  0  0
 21 22  2  0  0  0  0
 23 24  1  0  0  0  0
 23 32  1  0  0  0  0
 23 40  2  0  0  0  0
 24 25  1  0  0  0  0
 24 33  1  6  0  0  0
 25 26  1  0  0  0  0
 26 45  1  0  0  0  0
 27 28  1  0  0  0  0
 27 33  1  0  0  0  0
 27 39  2  0  0  0  0
 28 29  1  0  0  0  0
 28 34  1  1  0  0  0
 29 41  1  0  0  0  0
 29 42  1  0  0  0  0
 29 43  1  0  0  0  0
 44 45  1  0  0  0  0
M  END
>  <ID> (INSCoV-090)
INSCoV-090

>  <HBA> (INSCoV-090)
7

>  <HBD> (INSCoV-090)
7

>  <MCE-18> (INSCoV-090)
83.14

>  <nRot> (INSCoV-090)
8

>  <TopoPSA> (INSCoV-090)
186.64

>  <chembl_closest> (INSCoV-090)
CHEMBL13740

>  <chembl_max_sim> (INSCoV-090)
0,73193

>  <nSC> (INSCoV-090)
4

>  <nAR> (INSCoV-090)
1

>  <MW> (INSCoV-090)
638.27

$$$$

  -ISIS-  -- StrEd -- 

 48 51  0  0  0  0  0  0  0  0999 V2000
    1.7131    2.2275    0.0000 C   0  0  0  0  0  0  0  0  0  0  0  0
    0.8564    2.7224    0.0000 C   0  0  0  0  0  0  0  0  0  0  0  0
    0.8567    3.7115    0.0000 C   0  0  0  0  0  0  0  0  0  0  0  0
    0.0000    2.2283    0.0000 C   0  0  0  0  0  0  0  0  0  0  0  0
    0.0000    1.2395    0.0000 C   0  0  1  0  0  0  0  0  0  0  0  0
    0.8567    0.7451    0.0000 C   0  0  0  0  0  0  0  0  0  0  0  0
    1.7153   -0.7373    0.0000 C   0  0  1  0  0  0  0  0  0  0  0  0
    1.7191   -1.7250    0.0000 C   0  0  0  0  0  0  0  0  0  0  0  0
    0.8524   -2.2262    0.0000 N   0  0  0  0  0  0  0  0  0  0  0  0
    0.8691   -3.2217    0.0000 C   0  0  0  0  0  0  0  0  0  0  0  0
    2.5698   -0.2418    0.0000 C   0  0  0  0  0  0  0  0  0  0  0  0
    3.4257   -0.7354    0.0000 C   0  0  0  0  0  0  0  0  0  0  0  0
    4.2813   -0.2413    0.0000 C   0  0  0  0  0  0  0  0  0  0  0  0
    5.9922   -0.2410    0.0000 C   0  0  0  0  0  0  0  0  0  0  0  0
    6.8562   -0.7408    0.0000 C   0  0  0  0  0  0  0  0  0  0  0  0
    6.8330   -1.7717    0.0000 C   0  0  0  0  0  0  0  0  0  0  0  0
    7.7405   -2.2696    0.0000 C   0  0  0  0  0  0  0  0  0  0  0  0
    8.6452   -1.7750    0.0000 C   0  0  0  0  0  0  0  0  0  0  0  0
    8.6220   -0.7438    0.0000 C   0  0  0  0  0  0  0  0  0  0  0  0
    7.7378   -0.2061    0.0000 C   0  0  0  0  0  0  0  0  0  0  0  0
   -1.7128    1.2414    0.0000 C   0  0  0  0  0  0  0  0  0  0  0  0
   -2.5703    0.7481    0.0000 C   0  0  1  0  0  0  0  0  0  0  0  0
   -4.2791    0.7465    0.0000 C   0  0  0  0  0  0  0  0  0  0  0  0
   -5.1353    1.2376    0.0000 C   0  0  2  0  0  0  0  0  0  0  0  0
   -5.1380    2.2267    0.0000 C   0  0  0  0  0  0  0  0  0  0  0  0
    0.8578   -0.2440    0.0000 N   0  0  0  0  0  0  0  0  0  0  0  0
   -0.0022   -3.7050    0.0000 N   0  0  0  0  0  0  0  0  0  0  0  0
   -0.8570    0.7454    0.0000 N   0  0  0  0  0  0  0  0  0  0  0  0
   -3.4246    1.2422    0.0000 N   0  0  0  0  0  0  0  0  0  0  0  0
   -5.9893    0.7411    0.0000 N   0  0  0  0  0  0  0  0  0  0  0  0
    1.7169   -3.7115    0.0000 O   0  0  0  0  0  0  0  0  0  0  0  0
    5.1366   -0.7354    0.0000 O   0  0  0  0  0  0  0  0  0  0  0  0
    4.2810    0.7478    0.0000 O   0  0  0  0  0  0  0  0  0  0  0  0
    1.7131    1.2403    0.0000 O   0  0  0  0  0  0  0  0  0  0  0  0
   -4.2764   -0.2431    0.0000 O   0  0  0  0  0  0  0  0  0  0  0  0
   -1.7109    2.2305    0.0000 O   0  0  0  0  0  0  0  0  0  0  0  0
   -8.6223    2.2575    0.0000 C   0  0  0  0  0  0  0  0  0  0  0  0
   -7.7394    2.7959    0.0000 C   0  0  0  0  0  0  0  0  0  0  0  0
   -6.8600    2.2624    0.0000 C   0  0  0  0  0  0  0  0  0  0  0  0
   -6.8365    1.2284    0.0000 C   0  0  0  0  0  0  0  0  0  0  0  0
   -7.7424    0.7303    0.0000 C   0  0  0  0  0  0  0  0  0  0  0  0
   -8.6452    1.2236    0.0000 C   0  0  0  0  0  0  0  0  0  0  0  0
   -2.5728   -0.2407    0.0000 C   0  0  0  0  0  0  0  0  0  0  0  0
   -0.0011   -1.7139    0.0000 C   0  0  0  0  0  0  0  0  0  0  0  0
   -0.8553   -2.2262    0.0000 C   0  0  2  0  0  0  0  0  0  0  0  0
   -1.7218   -1.7250    0.0000 C   0  0  0  0  0  0  0  0  0  0  0  0
   -0.8724   -3.2217    0.0000 C   0  0  0  0  0  0  0  0  0  0  0  0
   -1.7174   -0.7373    0.0000 C   0  0  0  0  0  0  0  0  0  0  0  0
  1  2  1  0  0  0  0
  2  3  1  0  0  0  0
  2  4  1  0  0  0  0
  5  4  1  1  0  0  0
  5  6  1  0  0  0  0
  5 28  1  0  0  0  0
  6 26  1  0  0  0  0
  6 34  2  0  0  0  0
  7  8  1  0  0  0  0
  7 11  1  6  0  0  0
  7 26  1  0  0  0  0
  8  9  1  0  0  0  0
  9 10  1  0  0  0  0
  9 44  1  0  0  0  0
 10 27  1  0  0  0  0
 10 31  2  0  0  0  0
 11 12  2  0  0  0  0
 12 13  1  0  0  0  0
 13 32  1  0  0  0  0
 13 33  2  0  0  0  0
 14 15  1  0  0  0  0
 14 32  1  0  0  0  0
 15 16  2  0  0  0  0
 15 20  1  0  0  0  0
 16 17  1  0  0  0  0
 17 18  2  0  0  0  0
 18 19  1  0  0  0  0
 19 20  2  0  0  0  0
 21 22  1  0  0  0  0
 21 28  1  0  0  0  0
 21 36  2  0  0  0  0
 22 29  1  6  0  0  0
 22 43  1  0  0  0  0
 23 24  1  0  0  0  0
 23 29  1  0  0  0  0
 23 35  2  0  0  0  0
 24 25  1  1  0  0  0
 24 30  1  0  0  0  0
 27 47  1  0  0  0  0
 30 40  1  0  0  0  0
 37 38  2  0  0  0  0
 37 42  1  0  0  0  0
 38 39  1  0  0  0  0
 39 40  2  0  0  0  0
 40 41  1  0  0  0  0
 41 42  2  0  0  0  0
 43 48  1  0  0  0  0
 45 44  1  0  0  0  0
 45 46  1  1  0  0  0
 45 47  1  0  0  0  0
 46 48  1  0  0  0  0
M  END
>  <ID> (INSCoV-091)
INSCoV-091

>  <HBA> (INSCoV-091)
6

>  <HBD> (INSCoV-091)
5

>  <MCE-18> (INSCoV-091)
87.811

>  <nRot> (INSCoV-091)
10

>  <TopoPSA> (INSCoV-091)
157.97

>  <chembl_closest> (INSCoV-091)
CHEMBL4095366

>  <chembl_max_sim> (INSCoV-091)
0,77631

>  <nSC> (INSCoV-091)
5

>  <nAR> (INSCoV-091)
2

>  <MW> (INSCoV-091)
660.36

$$$$

  -ISIS-  -- StrEd -- 

 49 52  0  0  0  0  0  0  0  0999 V2000
    2.3413    3.6601    0.0000 C   0  0  0  0  0  0  0  0  0  0  0  0
    1.8411    2.8017    0.0000 C   0  0  0  0  0  0  0  0  0  0  0  0
    2.6993    2.3008    0.0000 C   0  0  0  0  0  0  0  0  0  0  0  0
    0.9786    2.3090    0.0000 C   0  0  0  0  0  0  0  0  0  0  0  0
    0.9750    1.3157    0.0000 C   0  0  1  0  0  0  0  0  0  0  0  0
    1.8346    0.8160    0.0000 C   0  0  0  0  0  0  0  0  0  0  0  0
    2.6918   -0.6784    0.0000 C   0  0  1  0  0  0  0  0  0  0  0  0
    2.6894   -1.6701    0.0000 C   0  0  0  0  0  0  0  0  0  0  0  0
    1.8165   -2.1685    0.0000 N   0  0  0  0  0  0  0  0  0  0  0  0
    1.8281   -3.1686    0.0000 C   0  0  0  0  0  0  0  0  0  0  0  0
    3.5540   -0.1882    0.0000 C   0  0  0  0  0  0  0  0  0  0  0  0
    4.4108   -0.6943    0.0000 C   0  0  0  0  0  0  0  0  0  0  0  0
    5.2730   -0.2057    0.0000 C   0  0  0  0  0  0  0  0  0  0  0  0
    7.0284   -0.2852    0.0000 N   0  0  0  0  0  0  0  0  0  0  0  0
   -0.7456    1.3243    0.0000 C   0  0  0  0  0  0  0  0  0  0  0  0
   -1.6098    0.8333    0.0000 C   0  0  1  0  0  0  0  0  0  0  0  0
   -3.3288    0.8398    0.0000 C   0  0  0  0  0  0  0  0  0  0  0  0
   -4.1877    1.3378    0.0000 C   0  0  2  0  0  0  0  0  0  0  0  0
   -4.1855    2.3314    0.0000 C   0  0  0  0  0  0  0  0  0  0  0  0
    1.8322   -0.1776    0.0000 N   0  0  0  0  0  0  0  0  0  0  0  0
    0.9492   -3.6514    0.0000 N   0  0  0  0  0  0  0  0  0  0  0  0
    0.1120    0.8230    0.0000 N   0  0  0  0  0  0  0  0  0  0  0  0
   -2.4670    1.3342    0.0000 N   0  0  0  0  0  0  0  0  0  0  0  0
   -5.0485    0.8435    0.0000 N   0  0  0  0  0  0  0  0  0  0  0  0
    2.6771   -3.6649    0.0000 O   0  0  0  0  0  0  0  0  0  0  0  0
    6.1420   -0.7112    0.0000 C   0  0  0  0  0  0  0  0  0  0  0  0
    5.2802    0.7885    0.0000 O   0  0  0  0  0  0  0  0  0  0  0  0
    2.6959    1.3108    0.0000 O   0  0  0  0  0  0  0  0  0  0  0  0
   -3.3317   -0.1542    0.0000 O   0  0  0  0  0  0  0  0  0  0  0  0
   -0.7399    2.3184    0.0000 O   0  0  0  0  0  0  0  0  0  0  0  0
    1.3477    3.6649    0.0000 F   0  0  0  0  0  0  0  0  0  0  0  0
   -3.1915    2.3290    0.0000 F   0  0  0  0  0  0  0  0  0  0  0  0
   -3.6858    3.1907    0.0000 F   0  0  0  0  0  0  0  0  0  0  0  0
   -5.0444    2.8303    0.0000 F   0  0  0  0  0  0  0  0  0  0  0  0
   -7.7094    2.3921    0.0000 C   0  0  0  0  0  0  0  0  0  0  0  0
   -7.6894    1.3566    0.0000 C   0  0  0  0  0  0  0  0  0  0  0  0
   -6.8031    0.8131    0.0000 C   0  0  0  0  0  0  0  0  0  0  0  0
   -5.9155    1.3477    0.0000 C   0  0  0  0  0  0  0  0  0  0  0  0
   -5.8888    2.3834    0.0000 C   0  0  0  0  0  0  0  0  0  0  0  0
   -6.7985    2.8865    0.0000 C   0  0  0  0  0  0  0  0  0  0  0  0
   -1.6168   -0.1600    0.0000 C   0  0  0  0  0  0  0  0  0  0  0  0
    0.9622   -1.6503    0.0000 C   0  0  0  0  0  0  0  0  0  0  0  0
    0.1002   -2.1623    0.0000 C   0  0  2  0  0  0  0  0  0  0  0  0
   -0.7678   -1.6549    0.0000 C   0  0  0  0  0  0  0  0  0  0  0  0
    0.0788   -3.1621    0.0000 C   0  0  0  0  0  0  0  0  0  0  0  0
   -0.7591   -0.6620    0.0000 C   0  0  0  0  0  0  0  0  0  0  0  0
    6.2198   -1.6999    0.0000 C   0  0  0  0  0  0  0  0  0  0  0  0
    7.7094   -1.0393    0.0000 N   0  0  0  0  0  0  0  0  0  0  0  0
    7.1951   -1.8785    0.0000 N   0  0  0  0  0  0  0  0  0  0  0  0
  1  2  1  0  0  0  0
  2  3  1  0  0  0  0
  2  4  1  0  0  0  0
  2 31  1  0  0  0  0
  5  4  1  1  0  0  0
  5  6  1  0  0  0  0
  5 22  1  0  0  0  0
  6 20  1  0  0  0  0
  6 28  2  0  0  0  0
  7  8  1  0  0  0  0
  7 11  1  6  0  0  0
  7 20  1  0  0  0  0
  8  9  1  0  0  0  0
  9 10  1  0  0  0  0
  9 42  1  0  0  0  0
 10 21  1  0  0  0  0
 10 25  2  0  0  0  0
 11 12  2  0  0  0  0
 12 13  1  0  0  0  0
 13 26  1  0  0  0  0
 13 27  2  0  0  0  0
 14 26  1  0  0  0  0
 14 48  1  0  0  0  0
 15 16  1  0  0  0  0
 15 22  1  0  0  0  0
 15 30  2  0  0  0  0
 16 23  1  6  0  0  0
 16 41  1  0  0  0  0
 17 18  1  0  0  0  0
 17 23  1  0  0  0  0
 17 29  2  0  0  0  0
 18 19  1  0  0  0  0
 18 24  1  1  0  0  0
 19 32  1  0  0  0  0
 19 33  1  0  0  0  0
 19 34  1  0  0  0  0
 21 45  1  0  0  0  0
 24 38  1  0  0  0  0
 26 47  2  0  0  0  0
 35 36  2  0  0  0  0
 35 40  1  0  0  0  0
 36 37  1  0  0  0  0
 37 38  2  0  0  0  0
 38 39  1  0  0  0  0
 39 40  2  0  0  0  0
 41 46  1  0  0  0  0
 43 42  1  0  0  0  0
 43 44  1  1  0  0  0
 43 45  1  0  0  0  0
 44 46  1  0  0  0  0
 47 49  1  0  0  0  0
 48 49  2  0  0  0  0
M  END
>  <ID> (INSCoV-092)
INSCoV-092

>  <HBA> (INSCoV-092)
7

>  <HBD> (INSCoV-092)
6

>  <MCE-18> (INSCoV-092)
106.191

>  <nRot> (INSCoV-092)
9

>  <TopoPSA> (INSCoV-092)
190.31

>  <chembl_closest> (INSCoV-092)
CHEMBL3662772

>  <chembl_max_sim> (INSCoV-092)
0,71805

>  <nSC> (INSCoV-092)
5

>  <nAR> (INSCoV-092)
2

>  <MW> (INSCoV-092)
693.3

$$$$

  -ISIS-  -- StrEd -- 

 39 43  0  0  0  0  0  0  0  0999 V2000
   -0.2383    3.9445    0.0000 N   0  0  0  0  0  0  0  0  0  0  0  0
    3.2335    2.1773    0.0000 C   0  0  2  0  0  0  0  0  0  0  0  0
    4.3112    0.9559    0.0000 C   0  0  0  0  0  0  0  0  0  0  0  0
    3.3578    1.1654    0.0000 C   0  0  0  0  0  0  0  0  0  0  0  0
    2.9089    4.7938    0.0000 C   0  0  0  0  0  0  0  0  0  0  0  0
   -0.7784    0.5316    0.0000 C   0  0  0  0  0  0  0  0  0  0  0  0
   -1.3516   -0.9891    0.0000 C   0  0  0  0  0  0  0  0  0  0  0  0
   -1.4034   -1.9753    0.0000 C   0  0  1  0  0  0  0  0  0  0  0  0
   -2.3524   -3.4226    0.0000 C   0  0  0  0  0  0  0  0  0  0  0  0
    4.8386    1.8123    0.0000 N   0  0  0  0  0  0  0  0  0  0  0  0
   -0.5180   -0.4342    0.0000 N   0  0  0  0  0  0  0  0  0  0  0  0
   -2.2972   -2.4271    0.0000 N   0  0  0  0  0  0  0  0  0  0  0  0
   -1.5149   -3.9673    0.0000 O   0  0  0  0  0  0  0  0  0  0  0  0
   -2.1311   -0.3595    0.0000 C   0  0  0  0  0  0  0  0  0  0  0  0
   -1.7835    0.5782    0.0000 C   0  0  0  0  0  0  0  0  0  0  0  0
   -0.5673   -2.5214    0.0000 C   0  0  0  0  0  0  0  0  0  0  0  0
    1.1266    2.8493    0.0000 C   0  0  0  0  0  0  0  0  0  0  0  0
    1.4529    1.9193    0.0000 C   0  0  0  0  0  0  0  0  0  0  0  0
    0.8411    1.1219    0.0000 N   0  0  0  0  0  0  0  0  0  0  0  0
   -0.1547    1.3096    0.0000 C   0  0  0  0  0  0  0  0  0  0  0  0
   -0.4977    2.2189    0.0000 N   0  0  0  0  0  0  0  0  0  0  0  0
    0.1144    3.0205    0.0000 C   0  0  0  0  0  0  0  0  0  0  0  0
    2.6019    3.8329    0.0000 C   0  0  0  0  0  0  0  0  0  0  0  0
    4.1513    2.5524    0.0000 C   0  0  0  0  0  0  0  0  0  0  0  0
    4.3689    3.5375    0.0000 O   0  0  0  0  0  0  0  0  0  0  0  0
    1.6068    3.7233    0.0000 C   0  0  0  0  0  0  0  0  0  0  0  0
    1.0578    4.5453    0.0000 O   0  0  0  0  0  0  0  0  0  0  0  0
    3.3489    3.1668    0.0000 C   0  0  0  0  0  0  0  0  0  0  0  0
    2.4214    1.6007    0.0000 O   0  0  0  0  0  0  0  0  0  0  0  0
   -1.2249    4.0987    0.0000 C   0  0  1  0  0  0  0  0  0  0  0  0
   -1.5847    5.0302    0.0000 C   0  0  0  0  0  0  0  0  0  0  0  0
   -1.8516    3.3213    0.0000 C   0  0  0  0  0  0  0  0  0  0  0  0
   -2.8383    3.4752    0.0000 C   0  0  0  0  0  0  0  0  0  0  0  0
   -3.2471   -3.8888    0.0000 C   0  0  0  0  0  0  0  0  0  0  0  0
   -3.3993   -4.8653    0.0000 S   0  0  0  0  0  0  0  0  0  0  0  0
   -4.3881   -5.0302    0.0000 C   0  0  0  0  0  0  0  0  0  0  0  0
   -4.8386   -4.1406    0.0000 C   0  0  0  0  0  0  0  0  0  0  0  0
   -4.1389   -3.4304    0.0000 N   0  0  0  0  0  0  0  0  0  0  0  0
   -0.6225   -3.5186    0.0000 C   0  0  0  0  0  0  0  0  0  0  0  0
  1 22  1  0  0  0  0
  1 30  1  0  0  0  0
  2  4  1  1  0  0  0
  2 24  1  0  0  0  0
  2 29  1  0  0  0  0
  2 28  1  0  0  0  0
  3  4  1  0  0  0  0
  3 10  1  0  0  0  0
  5 23  2  0  0  0  0
  6 11  1  0  0  0  0
  6 15  2  0  0  0  0
  6 20  1  0  0  0  0
  7  8  1  0  0  0  0
  7 11  1  0  0  0  0
  7 14  2  0  0  0  0
  8 12  1  0  0  0  0
  8 16  1  6  0  0  0
  9 12  1  0  0  0  0
  9 13  2  0  0  0  0
  9 34  1  0  0  0  0
 10 24  1  0  0  0  0
 14 15  1  0  0  0  0
 16 39  1  0  0  0  0
 17 18  1  0  0  0  0
 17 22  2  0  0  0  0
 17 26  1  0  0  0  0
 18 19  2  0  0  0  0
 18 29  1  0  0  0  0
 19 20  1  0  0  0  0
 20 21  2  0  0  0  0
 21 22  1  0  0  0  0
 23 26  1  0  0  0  0
 23 28  1  0  0  0  0
 24 25  2  0  0  0  0
 26 27  2  0  0  0  0
 30 31  1  6  0  0  0
 30 32  1  0  0  0  0
 32 33  1  0  0  0  0
 34 35  1  0  0  0  0
 34 38  2  0  0  0  0
 35 36  1  0  0  0  0
 36 37  2  0  0  0  0
 37 38  1  0  0  0  0
M  END
>  <ID> (INSCoV-093)
INSCoV-093

>  <HBA> (INSCoV-093)
7

>  <HBD> (INSCoV-093)
4

>  <MCE-18> (INSCoV-093)
130.526

>  <nRot> (INSCoV-093)
8

>  <TopoPSA> (INSCoV-093)
179.23

>  <chembl_closest> (INSCoV-093)
CHEMBL1455910

>  <chembl_max_sim> (INSCoV-093)
0,76494

>  <nSC> (INSCoV-093)
3

>  <nAR> (INSCoV-093)
3

>  <MW> (INSCoV-093)
549.22

$$$$

  -ISIS-  -- StrEd -- 

 34 36  0  0  0  0  0  0  0  0999 V2000
   -3.2199    1.4294    0.0000 N   0  0  0  0  0  0  0  0  0  0  0  0
   -2.0351   -2.2881    0.0000 C   0  0  1  0  0  0  0  0  0  0  0  0
   -1.9528   -3.9215    0.0000 C   0  0  0  0  0  0  0  0  0  0  0  0
   -2.5760   -3.1539    0.0000 C   0  0  0  0  0  0  0  0  0  0  0  0
   -4.5773   -1.5326    0.0000 C   0  0  0  0  0  0  0  0  0  0  0  0
    0.2529    1.4044    0.0000 C   0  0  0  0  0  0  0  0  0  0  0  0
    1.9833    1.3945    0.0000 C   0  0  0  0  0  0  0  0  0  0  0  0
   -1.0122   -3.5735    0.0000 N   0  0  0  0  0  0  0  0  0  0  0  0
    1.1152    0.8997    0.0000 N   0  0  0  0  0  0  0  0  0  0  0  0
   -2.3496   -0.0694    0.0000 C   0  0  0  0  0  0  0  0  0  0  0  0
   -1.5007   -0.6036    0.0000 C   0  0  0  0  0  0  0  0  0  0  0  0
   -0.6394   -0.0887    0.0000 N   0  0  0  0  0  0  0  0  0  0  0  0
   -0.6064    0.9152    0.0000 C   0  0  0  0  0  0  0  0  0  0  0  0
   -1.4856    1.3988    0.0000 N   0  0  0  0  0  0  0  0  0  0  0  0
   -2.3658    0.9289    0.0000 C   0  0  0  0  0  0  0  0  0  0  0  0
   -3.5962   -1.3899    0.0000 C   0  0  0  0  0  0  0  0  0  0  0  0
   -1.0810   -2.5603    0.0000 C   0  0  0  0  0  0  0  0  0  0  0  0
   -0.2958   -1.9248    0.0000 O   0  0  0  0  0  0  0  0  0  0  0  0
   -3.2719   -0.4523    0.0000 C   0  0  0  0  0  0  0  0  0  0  0  0
   -4.0079    0.2393    0.0000 O   0  0  0  0  0  0  0  0  0  0  0  0
   -1.3349   -1.5833    0.0000 O   0  0  0  0  0  0  0  0  0  0  0  0
   -3.2127    2.4287    0.0000 C   0  0  0  0  0  0  0  0  0  0  0  0
   -2.3429    2.9216    0.0000 C   0  0  0  0  0  0  0  0  0  0  0  0
   -2.3344    3.9215    0.0000 C   0  0  0  0  0  0  0  0  0  0  0  0
   -3.0273   -2.2363    0.0000 C   0  0  0  0  0  0  0  0  0  0  0  0
   -3.5283   -3.0916    0.0000 O   0  0  0  0  0  0  0  0  0  0  0  0
   -1.4808    2.4144    0.0000 C   0  0  0  0  0  0  0  0  0  0  0  0
    0.2589    2.4045    0.0000 O   0  0  0  0  0  0  0  0  0  0  0  0
    2.8460    0.8899    0.0000 C   0  0  1  0  0  0  0  0  0  0  0  0
    2.8402   -0.1101    0.0000 O   0  0  0  0  0  0  0  0  0  0  0  0
    3.7141    1.3854    0.0000 C   0  0  0  0  0  0  0  0  0  0  0  0
    3.2183    2.2538    0.0000 F   0  0  0  0  0  0  0  0  0  0  0  0
    4.2183    2.2488    0.0000 F   0  0  0  0  0  0  0  0  0  0  0  0
    4.5773    0.8809    0.0000 F   0  0  0  0  0  0  0  0  0  0  0  0
  1 15  1  0  0  0  0
  1 22  1  0  0  0  0
  2  4  1  6  0  0  0
  2 17  1  0  0  0  0
  2 21  1  0  0  0  0
  2 25  1  0  0  0  0
  3  4  1  0  0  0  0
  3  8  1  0  0  0  0
  5 16  2  0  0  0  0
  6  9  1  0  0  0  0
  6 13  1  0  0  0  0
  6 28  2  0  0  0  0
  7  9  1  0  0  0  0
  7 29  1  0  0  0  0
  8 17  1  0  0  0  0
 10 11  1  0  0  0  0
 10 15  2  0  0  0  0
 10 19  1  0  0  0  0
 11 12  2  0  0  0  0
 11 21  1  0  0  0  0
 12 13  1  0  0  0  0
 13 14  2  0  0  0  0
 14 15  1  0  0  0  0
 16 19  1  0  0  0  0
 16 25  1  0  0  0  0
 17 18  2  0  0  0  0
 19 20  2  0  0  0  0
 22 23  1  0  0  0  0
 23 24  1  0  0  0  0
 23 27  1  0  0  0  0
 25 26  2  0  0  0  0
 29 30  1  6  0  0  0
 29 31  1  0  0  0  0
 31 32  1  0  0  0  0
 31 33  1  0  0  0  0
 31 34  1  0  0  0  0
M  END
>  <ID> (INSCoV-094)
INSCoV-094

>  <HBA> (INSCoV-094)
8

>  <HBD> (INSCoV-094)
4

>  <MCE-18> (INSCoV-094)
109.2

>  <nRot> (INSCoV-094)
6

>  <TopoPSA> (INSCoV-094)
159.61

>  <chembl_closest> (INSCoV-094)
CHEMBL3929072

>  <chembl_max_sim> (INSCoV-094)
0,76568

>  <nSC> (INSCoV-094)
2

>  <nAR> (INSCoV-094)
1

>  <MW> (INSCoV-094)
485.15

$$$$

  -ISIS-  -- StrEd -- 

 34 38  0  0  0  0  0  0  0  0999 V2000
   -1.7296    1.4809    0.0000 N   0  0  0  0  0  0  0  0  0  0  0  0
    2.1666    1.7179    0.0000 C   0  0  1  0  0  0  0  0  0  0  0  0
    3.7203    2.2309    0.0000 C   0  0  0  0  0  0  0  0  0  0  0  0
    2.7791    2.5352    0.0000 C   0  0  0  0  0  0  0  0  0  0  0  0
    0.5439    3.8170    0.0000 C   0  0  0  0  0  0  0  0  0  0  0  0
    3.7351    1.2276    0.0000 N   0  0  0  0  0  0  0  0  0  0  0  0
   -0.0171    1.2104    0.0000 C   0  0  0  0  0  0  0  0  0  0  0  0
    0.7879    0.6112    0.0000 C   0  0  0  0  0  0  0  0  0  0  0  0
    0.6184   -0.3781    0.0000 N   0  0  0  0  0  0  0  0  0  0  0  0
   -0.3052   -0.7718    0.0000 C   0  0  0  0  0  0  0  0  0  0  0  0
   -1.0747   -0.1262    0.0000 N   0  0  0  0  0  0  0  0  0  0  0  0
   -0.9545    0.8650    0.0000 C   0  0  0  0  0  0  0  0  0  0  0  0
    0.7650    2.8502    0.0000 C   0  0  0  0  0  0  0  0  0  0  0  0
    2.7651    0.9260    0.0000 C   0  0  0  0  0  0  0  0  0  0  0  0
    2.4558   -0.0360    0.0000 O   0  0  0  0  0  0  0  0  0  0  0  0
    0.0073    2.2092    0.0000 C   0  0  0  0  0  0  0  0  0  0  0  0
   -0.9037    2.6461    0.0000 O   0  0  0  0  0  0  0  0  0  0  0  0
    1.7619    0.8103    0.0000 O   0  0  0  0  0  0  0  0  0  0  0  0
   -2.6596    1.1133    0.0000 C   0  0  0  0  0  0  0  0  0  0  0  0
   -2.8053    0.1238    0.0000 C   0  0  0  0  0  0  0  0  0  0  0  0
   -3.7351   -0.2449    0.0000 C   0  0  0  0  0  0  0  0  0  0  0  0
    1.7602    2.6249    0.0000 C   0  0  0  0  0  0  0  0  0  0  0  0
    2.3773    3.4010    0.0000 O   0  0  0  0  0  0  0  0  0  0  0  0
   -2.0208   -0.4970    0.0000 C   0  0  0  0  0  0  0  0  0  0  0  0
   -0.4553   -1.7476    0.0000 N   0  0  0  0  0  0  0  0  0  0  0  0
   -0.1990   -3.3373    0.0000 C   0  0  0  0  0  0  0  0  0  0  0  0
    0.2654   -2.4447    0.0000 C   0  0  0  0  0  0  0  0  0  0  0  0
   -1.3349   -2.2013    0.0000 C   0  0  0  0  0  0  0  0  0  0  0  0
   -1.1866   -3.1985    0.0000 C   0  0  0  0  0  0  0  0  0  0  0  0
   -1.9513   -3.8170    0.0000 C   0  0  0  0  0  0  0  0  0  0  0  0
   -2.8985   -3.4798    0.0000 C   0  0  0  0  0  0  0  0  0  0  0  0
   -3.0431   -2.4949    0.0000 C   0  0  0  0  0  0  0  0  0  0  0  0
   -2.2754   -1.8470    0.0000 C   0  0  0  0  0  0  0  0  0  0  0  0
    1.2428   -2.2850    0.0000 C   0  0  0  0  0  0  0  0  0  0  0  0
  1 12  1  0  0  0  0
  1 19  1  0  0  0  0
  2  4  1  1  0  0  0
  2 14  1  0  0  0  0
  2 18  1  0  0  0  0
  2 22  1  0  0  0  0
  3  4  1  0  0  0  0
  3  6  1  0  0  0  0
  5 13  2  0  0  0  0
  6 14  1  0  0  0  0
  7  8  1  0  0  0  0
  7 12  2  0  0  0  0
  7 16  1  0  0  0  0
  8  9  2  0  0  0  0
  8 18  1  0  0  0  0
  9 10  1  0  0  0  0
 10 11  2  0  0  0  0
 10 25  1  0  0  0  0
 11 12  1  0  0  0  0
 13 16  1  0  0  0  0
 13 22  1  0  0  0  0
 14 15  2  0  0  0  0
 16 17  2  0  0  0  0
 19 20  1  0  0  0  0
 20 21  1  0  0  0  0
 20 24  1  0  0  0  0
 22 23  2  0  0  0  0
 25 27  1  0  0  0  0
 25 28  1  0  0  0  0
 26 27  2  0  0  0  0
 26 29  1  0  0  0  0
 27 34  1  0  0  0  0
 28 29  2  0  0  0  0
 28 33  1  0  0  0  0
 29 30  1  0  0  0  0
 30 31  2  0  0  0  0
 31 32  1  0  0  0  0
 32 33  2  0  0  0  0
M  END
>  <ID> (INSCoV-095)
INSCoV-095

>  <HBA> (INSCoV-095)
6

>  <HBD> (INSCoV-095)
2

>  <MCE-18> (INSCoV-095)
129.636

>  <nRot> (INSCoV-095)
4

>  <TopoPSA> (INSCoV-095)
115.21

>  <chembl_closest> (INSCoV-095)
CHEMBL1341708

>  <chembl_max_sim> (INSCoV-095)
0,79289

>  <nSC> (INSCoV-095)
1

>  <nAR> (INSCoV-095)
3

>  <MW> (INSCoV-095)
459.19

$$$$

  -ISIS-  -- StrEd -- 

 40 42  0  0  0  0  0  0  0  0999 V2000
    4.3578   -0.3999    0.0000 C   0  0  0  0  0  0  0  0  0  0  0  0
    5.1993   -0.0255    0.0000 N   0  0  0  0  0  0  0  0  0  0  0  0
    4.8740    1.1465    0.0000 C   0  0  0  0  0  0  0  0  0  0  0  0
    3.7098    1.0570    0.0000 C   0  0  1  0  0  0  0  0  0  0  0  0
    3.6127    0.1411    0.0000 C   0  0  0  0  0  0  0  0  0  0  0  0
    0.5963   -3.2391    0.0000 C   0  0  0  0  0  0  0  0  0  0  0  0
   -0.2759   -2.7359    0.0000 C   0  0  0  0  0  0  0  0  0  0  0  0
   -1.1488   -3.2391    0.0000 C   0  0  0  0  0  0  0  0  0  0  0  0
   -2.8938   -3.2391    0.0000 C   0  0  0  0  0  0  0  0  0  0  0  0
   -3.7663   -2.7359    0.0000 C   0  0  0  0  0  0  0  0  0  0  0  0
   -4.6380   -3.2391    0.0000 C   0  0  0  0  0  0  0  0  0  0  0  0
   -5.5114   -2.7359    0.0000 C   0  0  0  0  0  0  0  0  0  0  0  0
   -5.5114   -1.7278    0.0000 C   0  0  0  0  0  0  0  0  0  0  0  0
   -4.6380   -1.2242    0.0000 C   0  0  0  0  0  0  0  0  0  0  0  0
   -3.7663   -1.7278    0.0000 C   0  0  0  0  0  0  0  0  0  0  0  0
   -2.0213   -2.7359    0.0000 O   0  0  0  0  0  0  0  0  0  0  0  0
   -1.1488   -4.2470    0.0000 O   0  0  0  0  0  0  0  0  0  0  0  0
    1.4696   -2.7359    0.0000 C   0  0  1  0  0  0  0  0  0  0  0  0
   -0.8041    1.7204    0.0000 C   0  0  0  0  0  0  0  0  0  0  0  0
   -0.2993    0.8470    0.0000 C   0  0  0  0  0  0  0  0  0  0  0  0
   -0.8041   -0.0255    0.0000 C   0  0  0  0  0  0  0  0  0  0  0  0
    0.7075    0.8470    0.0000 C   0  0  0  0  0  0  0  0  0  0  0  0
    1.2115   -0.0255    0.0000 C   0  0  1  0  0  0  0  0  0  0  0  0
    0.9002   -0.9841    0.0000 C   0  0  0  0  0  0  0  0  0  0  0  0
    2.7018    1.0570    0.0000 C   0  0  0  0  0  0  0  0  0  0  0  0
    3.7098    2.6518    0.0000 C   0  0  0  0  0  0  0  0  0  0  0  0
    4.1695    3.4494    0.0000 C   0  0  0  0  0  0  0  0  0  0  0  0
    1.5745   -1.7328    0.0000 N   0  0  0  0  0  0  0  0  0  0  0  0
    2.1982    0.1839    0.0000 N   0  0  0  0  0  0  0  0  0  0  0  0
    4.1695    1.8549    0.0000 N   0  0  0  0  0  0  0  0  0  0  0  0
    3.7098    4.2470    0.0000 N   0  0  0  0  0  0  0  0  0  0  0  0
   -0.1076   -0.9841    0.0000 O   0  0  0  0  0  0  0  0  0  0  0  0
    2.7884    2.6518    0.0000 O   0  0  0  0  0  0  0  0  0  0  0  0
    2.1978    1.9298    0.0000 O   0  0  0  0  0  0  0  0  0  0  0  0
    2.2839   -3.3285    0.0000 C   0  0  0  0  0  0  0  0  0  0  0  0
    3.2062   -2.9183    0.0000 C   0  0  0  0  0  0  0  0  0  0  0  0
    4.1268   -3.3285    0.0000 C   0  0  0  0  0  0  0  0  0  0  0  0
    5.5114   -0.9841    0.0000 C   0  0  0  0  0  0  0  0  0  0  0  0
    4.8367   -1.7328    0.0000 C   0  0  0  0  0  0  0  0  0  0  0  0
    4.9416   -2.7359    0.0000 C   0  0  0  0  0  0  0  0  0  0  0  0
  2  1  1  0  0  0  0
  1  5  1  0  0  0  0
  2  3  1  0  0  0  0
  2 38  1  0  0  0  0
  4  3  1  0  0  0  0
  4  5  1  0  0  0  0
  4 25  1  0  0  0  0
  4 30  1  6  0  0  0
  6  7  2  0  0  0  0
 18  6  1  1  0  0  0
  7  8  1  0  0  0  0
  8 16  1  0  0  0  0
  8 17  2  0  0  0  0
  9 10  1  0  0  0  0
  9 16  1  0  0  0  0
 10 11  2  0  0  0  0
 10 15  1  0  0  0  0
 11 12  1  0  0  0  0
 12 13  2  0  0  0  0
 13 14  1  0  0  0  0
 14 15  2  0  0  0  0
 18 28  1  0  0  0  0
 18 35  1  0  0  0  0
 19 20  1  0  0  0  0
 20 21  1  0  0  0  0
 20 22  1  0  0  0  0
 23 22  1  6  0  0  0
 23 24  1  0  0  0  0
 23 29  1  0  0  0  0
 24 28  1  0  0  0  0
 24 32  2  0  0  0  0
 25 29  1  0  0  0  0
 25 34  2  0  0  0  0
 26 27  1  0  0  0  0
 26 30  1  0  0  0  0
 26 33  2  0  0  0  0
 27 31  1  0  0  0  0
 35 36  1  0  0  0  0
 36 37  2  0  0  0  0
 37 40  1  0  0  0  0
 38 39  1  0  0  0  0
 39 40  1  0  0  0  0
M  END
>  <ID> (INSCoV-096)
INSCoV-096

>  <HBA> (INSCoV-096)
5

>  <HBD> (INSCoV-096)
7

>  <MCE-18> (INSCoV-096)
72.13

>  <nRot> (INSCoV-096)
8

>  <TopoPSA> (INSCoV-096)
142.86

>  <chembl_closest> (INSCoV-096)
CHEMBL199603

>  <chembl_max_sim> (INSCoV-096)
0,7817

>  <nSC> (INSCoV-096)
3

>  <nAR> (INSCoV-096)
1

>  <MW> (INSCoV-096)
553.33

$$$$

  -ISIS-  -- StrEd -- 

 35 37  0  0  0  0  0  0  0  0999 V2000
    0.4312   -0.9965    0.0000 C   0  0  0  0  0  0  0  0  0  0  0  0
    1.2975   -1.4941    0.0000 C   0  0  0  0  0  0  0  0  0  0  0  0
    2.1608   -0.9926    0.0000 C   0  0  0  0  0  0  0  0  0  0  0  0
    3.8900   -0.9881    0.0000 C   0  0  0  0  0  0  0  0  0  0  0  0
    4.7642   -1.4910    0.0000 C   0  0  0  0  0  0  0  0  0  0  0  0
    4.7628   -2.4909    0.0000 C   0  0  0  0  0  0  0  0  0  0  0  0
    5.6305   -2.9865    0.0000 C   0  0  0  0  0  0  0  0  0  0  0  0
    6.4969   -2.4885    0.0000 C   0  0  0  0  0  0  0  0  0  0  0  0
    6.4924   -1.4880    0.0000 C   0  0  0  0  0  0  0  0  0  0  0  0
    5.6275   -0.9871    0.0000 C   0  0  0  0  0  0  0  0  0  0  0  0
    3.0267   -1.4900    0.0000 O   0  0  0  0  0  0  0  0  0  0  0  0
    2.1584    0.0073    0.0000 O   0  0  0  0  0  0  0  0  0  0  0  0
   -0.4327   -1.4983    0.0000 C   0  0  2  0  0  0  0  0  0  0  0  0
   -0.4385    1.4989    0.0000 C   0  0  0  0  0  0  0  0  0  0  0  0
   -1.3049    1.9980    0.0000 C   0  0  0  0  0  0  0  0  0  0  0  0
   -1.3065    2.9973    0.0000 C   0  0  0  0  0  0  0  0  0  0  0  0
   -2.1702    1.4969    0.0000 C   0  0  0  0  0  0  0  0  0  0  0  0
   -2.1687    0.4974    0.0000 C   0  0  1  0  0  0  0  0  0  0  0  0
   -1.3014   -0.0004    0.0000 C   0  0  0  0  0  0  0  0  0  0  0  0
   -3.9003    0.4940    0.0000 C   0  0  0  0  0  0  0  0  0  0  0  0
   -4.7652   -0.0055    0.0000 C   0  0  2  0  0  0  0  0  0  0  0  0
   -4.7602   -1.0161    0.0000 C   0  0  2  0  0  0  0  0  0  0  0  0
   -3.8851   -1.4925    0.0000 C   0  0  1  0  0  0  0  0  0  0  0  0
   -4.7726   -2.0033    0.0000 C   0  0  0  0  0  0  0  0  0  0  0  0
   -1.2996   -1.0003    0.0000 N   0  0  0  0  0  0  0  0  0  0  0  0
   -3.0336   -0.0039    0.0000 N   0  0  0  0  0  0  0  0  0  0  0  0
   -5.6316    0.4915    0.0000 N   0  0  0  0  0  0  0  0  0  0  0  0
   -0.4371    0.5009    0.0000 O   0  0  0  0  0  0  0  0  0  0  0  0
   -3.9018    1.4941    0.0000 O   0  0  0  0  0  0  0  0  0  0  0  0
   -0.4306   -2.4978    0.0000 C   0  0  0  0  0  0  0  0  0  0  0  0
   -1.2965   -2.9973    0.0000 C   0  0  0  0  0  0  0  0  0  0  0  0
   -2.1618   -2.4968    0.0000 C   0  0  0  0  0  0  0  0  0  0  0  0
   -2.1612   -1.4969    0.0000 C   0  0  0  0  0  0  0  0  0  0  0  0
   -3.0292   -0.9985    0.0000 C   0  0  0  0  0  0  0  0  0  0  0  0
   -6.4969   -0.0093    0.0000 C   0  0  0  0  0  0  0  0  0  0  0  0
  1  2  2  0  0  0  0
 13  1  1  1  0  0  0
  2  3  1  0  0  0  0
  3 11  1  0  0  0  0
  3 12  2  0  0  0  0
  4  5  1  0  0  0  0
  4 11  1  0  0  0  0
  5  6  2  0  0  0  0
  5 10  1  0  0  0  0
  6  7  1  0  0  0  0
  7  8  2  0  0  0  0
  8  9  1  0  0  0  0
  9 10  2  0  0  0  0
 13 25  1  0  0  0  0
 13 30  1  0  0  0  0
 14 15  1  0  0  0  0
 15 16  1  0  0  0  0
 15 17  1  0  0  0  0
 18 17  1  1  0  0  0
 18 19  1  0  0  0  0
 18 26  1  0  0  0  0
 19 25  1  0  0  0  0
 19 28  2  0  0  0  0
 20 21  1  0  0  0  0
 20 26  1  0  0  0  0
 20 29  2  0  0  0  0
 21 22  1  0  0  0  0
 21 27  1  6  0  0  0
 22 23  1  0  0  0  0
 22 24  1  6  0  0  0
 23 24  1  6  0  0  0
 23 34  1  0  0  0  0
 27 35  1  0  0  0  0
 30 31  1  0  0  0  0
 31 32  2  0  0  0  0
 32 33  1  0  0  0  0
 33 34  1  0  0  0  0
M  END
>  <ID> (INSCoV-097)
INSCoV-097

>  <HBA> (INSCoV-097)
4

>  <HBD> (INSCoV-097)
4

>  <MCE-18> (INSCoV-097)
64.953

>  <nRot> (INSCoV-097)
7

>  <TopoPSA> (INSCoV-097)
96.53

>  <chembl_closest> (INSCoV-097)
No

>  <chembl_max_sim> (INSCoV-097)
0,7

>  <nSC> (INSCoV-097)
5

>  <nAR> (INSCoV-097)
1

>  <MW> (INSCoV-097)
481.29

$$$$
